Auto-Transcript Start Time:  15:47:37, 04 Nov 2025 GMT Standard Time 
Current Directory: "C:\Users\y.chavali.176\OneDrive - Cranfield University\fm_assignment\2m_geometry_200x20"

              Welcome to ANSYS Fluent 2025 R2

              Copyright 1987-2025 ANSYS, Inc. All Rights Reserved.
              Unauthorized use, distribution or duplication is prohibited.
              This product is subject to U.S. laws governing export and re-export.
              For full Legal Notice, see documentation.

Build Time: Jun 16 2025 10:46:43 EDT  Build Id: 10204  
 
Connected License Server List:	1055@cclic-2.central.cranfield.ac.uk

*********************************************
Info: Your license enables 4-way parallel execution.
For faster simulations, please start the application with the appropriate parallel options.
*********************************************


     --------------------------------------------------------------
     This is an academic version of ANSYS FLUENT. Usage of this product
     license is limited to the terms and conditions specified in your ANSYS
     license form, additional terms section.
     --------------------------------------------------------------
Host spawning Node 0 on machine "37PCL046" (win64).

-------------------------------------------------------------------------------
ID    Hostname  Core  O.S.         PID    Vendor                          
-------------------------------------------------------------------------------
n0    37PCL046  1/28  Windows-x64  23248  Intel(R) Core(TM) i7-14700      
host  37PCL046        Windows-x64  2204   Intel(R) Core(TM) i7-14700      

MPI Option Selected: intel
-------------------------------------------------------------------------------

Cleanup script file is C:\\Users\\y.chavali.176\\OneDrive - Cranfield University\\fm_assignment\\2m_geometry_200x20\\cleanup-fluent-37PCL046-2204.bat

Graphics driver currently in use: dx11


Posting ANSYS Product Improvement Program startup data
Done.
Fast-loading "C:\PROGRA~1\ANSYSI~1\v252\fluent\fluent25.2.0\\addons\afd\lib\hdfio.bin"
Done.
Note: Rank = 0: Process affinity not being set (6).

Reading from 37PCL046:"C:/Users/y.chavali.176/OneDrive - Cranfield University/fm_assignment/2m_geometry_200x20/moderate2m.cas.h5" in NODE0 mode ...
  Reading mesh ...
         891 cells,     1 cell zone  ...
            891 quadrilateral cells,  zone id: 8
        1890 faces,     5 face zones ...
           1674 2D interior faces,  zone id: 9
              9 2D velocity-inlet faces,  zone id: 10
              9 2D pressure-outlet faces,  zone id: 11
             99 2D wall faces,  zone id: 12
             99 2D wall faces,  zone id: 13
        1000 nodes,     1 node zone  ...
  Done.


Building...
     mesh
     materials,
     interface,
     domains,
	mixture
     zones,
	bottomwall
	topwall
	outlet
	inlet
	int_fluid
	fluid
     parallel,
Done.

> (cx-gui-do cx-activate-item "Key Behavioral Changes*PanelButtons*PushButton1(OK)")
(cx-gui-do cx-activate-item "MenuBar*ReadSubMenu*Mesh...")
(cx-gui-do cx-set-toggle-button2 "Read Mesh Options*Table1(Options)*ToggleBox1*Replace mesh" #t)
(cx-gui-do cx-activate-item "Read Mesh Options*Table1(Options)*ToggleBox1*Replace mesh")
(cx-gui-do cx-activate-item "Read Mesh Options*PanelButtons*PushButton1(OK)")
(cx-gui-do cx-set-file-dialog-entries "Select File" '( "moderate.msh") "All Mesh Files (*.msh* *.MSH* )")

Writing Settings file "C:\Users\YCHAVA~1.176\AppData\Local\Temp\2"...
	writing rp variables ... Done.
	writing domain variables ... Done.
	writing fluid (type fluid) (mixture) ... Done.
	writing int_fluid (type interior) (mixture) ... Done.
	writing inlet (type velocity-inlet) (mixture) ... Done.
	writing outlet (type pressure-outlet) (mixture) ... Done.
	writing topwall (type wall) (mixture) ... Done.
	writing bottomwall (type wall) (mixture) ... Done.
	writing zones map name-id ... Done.
Note: Rank = 0: Process affinity not being set (6).
Reading "C:/Users/y.chavali.176/OneDrive - Cranfield University/fm_assignment/2m_geometry_200x20/moderate.msh"...
Buffering for file scan...


       Clearing partially read grid.
    4000 nodes.
    3781 quadrilateral cells, zone  8.
    7344 2D interior faces, zone  9.
      19 2D velocity-inlet faces, zone 10.
      19 2D pressure-outlet faces, zone 11.
     199 2D wall faces, zone 12.
     199 2D wall faces, zone 13.

Building...
     mesh
     materials,
     interface,
     domains,
     zones,
	bottomwall
	topwall
	outlet
	inlet
	int_fluid
	fluid
     parallel,
Done.
 Setting zone id of fluid to 8.
 Setting zone id of int_fluid to 9.
 Setting zone id of inlet to 10.
 Setting zone id of outlet to 11.
 Setting zone id of topwall to 12.
 Setting zone id of bottomwall to 13.
Done.

Setting fluid (mixture) ... Done.
Setting int_fluid (mixture) ... Done.
Setting inlet (mixture) ... Done.
Setting outlet (mixture) ... Done.
Setting topwall (mixture) ... Done.
Setting bottomwall (mixture) ... Done.

(cx-gui-do cx-activate-item "General*Table1*ButtonBox1(Mesh)*PushButton2(Display)")
(cx-gui-do cx-activate-item "Mesh Display*PanelButtons*PushButton1(OK)")
(cx-use-window-id 51)
(cx-gui-do cx-activate-item "Mesh Display*PanelButtons*PushButton2(Cancel)")
(cx-gui-do cx-set-list-tree-selections "NavigationPane*Frame2*Table1*List_Tree2" (list "Solution|Initialization"))
(cx-gui-do cx-set-list-tree-selections "NavigationPane*Frame2*Table1*List_Tree2" (list "Solution|Initialization"))
(cx-gui-do cx-activate-item "NavigationPane*Frame2*Table1*List_Tree2")
(cx-gui-do cx-set-list-tree-selections "NavigationPane*Frame2*Table1*List_Tree2" (list "Solution|Initialization"))
(cx-gui-do cx-set-list-selections "Solution Initialization*Table1*DropDownList1(Compute from)" '( 1))
(cx-gui-do cx-activate-item "Solution Initialization*Table1*DropDownList1(Compute from)")
(cx-gui-do cx-activate-item "Solution Initialization*Table1*Frame9*PushButton1(Initialize)")
(cx-gui-do cx-set-list-tree-selections "NavigationPane*Frame2*Table1*List_Tree2" (list "Solution|Run Calculation"))
(cx-gui-do cx-set-list-tree-selections "NavigationPane*Frame2*Table1*List_Tree2" (list "Solution|Run Calculation"))
(cx-gui-do cx-activate-item "NavigationPane*Frame2*Table1*List_Tree2")
(cx-gui-do cx-set-list-tree-selections "NavigationPane*Frame2*Table1*List_Tree2" (list "Solution|Run Calculation"))
(cx-gui-do cx-activate-item "Run Calculation*Table1*Table6(Solution Advancement)*Table1*PushButton3(Calculate)")


  iter  continuity  x-velocity  y-velocity     time/iter
     1  0.0000e+00  3.8353e-02  0.0000e+00  0:00:26  999
     2  1.0000e+00  2.0642e-02  2.1083e-04  0:00:54  998
     3  1.0000e+00  1.1275e-02  2.1729e-04  0:00:47  997
     4  7.9928e-01  6.1683e-03  1.5382e-04  0:00:45  996
     5  5.2893e-01  3.4137e-03  9.8184e-05  0:00:41  995
     6  3.8569e-01  1.8958e-03  6.6780e-05  0:00:37  994
     7  3.0823e-01  1.0613e-03  4.6042e-05  0:00:34  993
     8  2.3167e-01  5.9755e-04  3.0025e-05  0:00:32  992
     9  1.6526e-01  3.3765e-04  1.9064e-05  0:00:30  991
    10  1.1323e-01  1.9185e-04  1.1906e-05  0:00:28  990
    11  7.7434e-02  1.1092e-04  7.5530e-06  0:00:27  989

  iter  continuity  x-velocity  y-velocity     time/iter
    12  5.1490e-02  6.4357e-05  4.7399e-06  0:00:26  988
    13  3.3968e-02  3.7469e-05  2.9791e-06  0:00:26  987
    14  2.2286e-02  2.1954e-05  1.8988e-06  0:00:25  986
    15  1.4562e-02  1.2978e-05  1.2140e-06  0:00:25  985
    16  9.5520e-03  7.7203e-06  7.7695e-07  0:00:24  984
    17  6.2847e-03  4.6101e-06  4.9724e-07  0:00:23  983
    18  4.1200e-03  2.7597e-06  3.1793e-07  0:00:23  982
    19  2.6959e-03  1.6551e-06  2.0319e-07  0:00:22  981
    20  1.7647e-03  9.9678e-07  1.3042e-07  0:00:22  980
    21  1.1527e-03  6.0275e-07  8.4087e-08  0:00:21  979
    22  7.5521e-04  3.6551e-07  5.4147e-08  0:00:21  978

  iter  continuity  x-velocity  y-velocity     time/iter
    23  4.9508e-04  2.2216e-07  3.4785e-08  0:00:22  977
    24  3.2567e-04  1.3534e-07  2.2360e-08  0:00:21  976
    25  2.1445e-04  8.2675e-08  1.4340e-08  0:00:21  975
    26  1.4117e-04  5.0647e-08  9.1810e-09  0:00:20  974
    27  9.3010e-05  3.1111e-08  5.8626e-09  0:00:21  973
    28  6.1245e-05  1.9164e-08  3.7515e-09  0:00:21  972
    29  4.0352e-05  1.1851e-08  2.4108e-09  0:00:20  971
    30  2.6629e-05  7.3520e-09  1.5517e-09  0:00:20  970
    31  1.7580e-05  4.5721e-09  9.9897e-10  0:00:21  969
    32  1.1616e-05  2.8502e-09  6.4366e-10  0:00:22  968
    33  7.6723e-06  1.7808e-09  4.1472e-10  0:00:21  967

  iter  continuity  x-velocity  y-velocity     time/iter
    34  5.0661e-06  1.1155e-09  2.6769e-10  0:00:21  966
    35  3.3460e-06  7.0039e-10  1.7309e-10  0:00:21  965
    36  2.2117e-06  4.4103e-10  1.1217e-10  0:00:20  964
    37  1.4663e-06  2.8530e-10  7.5754e-11  0:00:20  963
    38  9.7693e-07  1.8550e-10  5.0831e-11  0:00:20  962
!   38 solution is converged

Calculation complete.
(cx-gui-do cx-activate-item "Information*OK")
(cx-gui-do cx-set-list-tree-selections "NavigationPane*Frame2*Table1*List_Tree2" (list "Solution|Monitors|Residual"))
(cx-gui-do cx-set-list-tree-selections "NavigationPane*Frame2*Table1*List_Tree2" (list "Solution|Monitors|Residual"))
(cx-gui-do cx-activate-item "NavigationPane*Frame2*Table1*List_Tree2")
(cx-gui-do cx-set-list-tree-selections "NavigationPane*Frame2*Table1*List_Tree2" (list "Solution|Monitors|Residual"))
(cx-gui-do cx-set-real-entry-list "Residual Monitors*Table1*Table2*Table1*Table1(Equations)*RealEntry11" '( 1e-09))
(cx-gui-do cx-set-real-entry-list "Residual Monitors*Table1*Table2*Table1*Table1(Equations)*RealEntry17" '( 1e-09))
(cx-gui-do cx-set-real-entry-list "Residual Monitors*Table1*Table2*Table1*Table1(Equations)*RealEntry23" '( 1e-09))
(cx-gui-do cx-activate-item "Residual Monitors*PanelButtons*PushButton1(OK)")
(cx-gui-do cx-set-list-tree-selections "NavigationPane*Frame2*Table1*List_Tree2" (list "Solution|Initialization"))
(cx-gui-do cx-set-list-tree-selections "NavigationPane*Frame2*Table1*List_Tree2" (list "Solution|Initialization"))
(cx-gui-do cx-activate-item "NavigationPane*Frame2*Table1*List_Tree2")
(cx-gui-do cx-set-list-tree-selections "NavigationPane*Frame2*Table1*List_Tree2" (list "Solution|Initialization"))
(cx-gui-do cx-set-list-selections "Solution Initialization*Table1*DropDownList1(Compute from)" '( 1))
(cx-gui-do cx-activate-item "Solution Initialization*Table1*DropDownList1(Compute from)")
(cx-gui-do cx-activate-item "Solution Initialization*Table1*Frame9*PushButton1(Initialize)")
(cx-gui-do cx-activate-item "Question*OK")
(cx-gui-do cx-set-list-tree-selections "NavigationPane*Frame2*Table1*List_Tree2" (list "Solution|Run Calculation"))
(cx-gui-do cx-set-list-tree-selections "NavigationPane*Frame2*Table1*List_Tree2" (list "Solution|Run Calculation"))
(cx-gui-do cx-activate-item "NavigationPane*Frame2*Table1*List_Tree2")
(cx-gui-do cx-set-list-tree-selections "NavigationPane*Frame2*Table1*List_Tree2" (list "Solution|Run Calculation"))
(cx-gui-do cx-activate-item "Run Calculation*Table1*Table6(Solution Advancement)*Table1*PushButton3(Calculate)")


  iter  continuity  x-velocity  y-velocity     time/iter
     1  0.0000e+00  3.8353e-02  0.0000e+00  0:00:20  999
     2  1.0000e+00  2.0642e-02  2.1083e-04  0:00:22  998
     3  1.0000e+00  1.1275e-02  2.1729e-04  0:00:22  997
     4  7.9928e-01  6.1683e-03  1.5382e-04  0:00:22  996
     5  5.2893e-01  3.4137e-03  9.8184e-05  0:00:23  995
     6  3.8569e-01  1.8958e-03  6.6780e-05  0:00:23  994
     7  3.0823e-01  1.0613e-03  4.6042e-05  0:00:22  993
     8  2.3167e-01  5.9755e-04  3.0025e-05  0:00:23  992
     9  1.6526e-01  3.3765e-04  1.9064e-05  0:00:22  991
    10  1.1323e-01  1.9185e-04  1.1906e-05  0:00:22  990
    11  7.7434e-02  1.1092e-04  7.5530e-06  0:00:21  989

  iter  continuity  x-velocity  y-velocity     time/iter
    12  5.1490e-02  6.4357e-05  4.7399e-06  0:00:22  988
    13  3.3968e-02  3.7469e-05  2.9791e-06  0:00:22  987
    14  2.2286e-02  2.1954e-05  1.8988e-06  0:00:21  986
    15  1.4562e-02  1.2978e-05  1.2140e-06  0:00:21  985
    16  9.5520e-03  7.7203e-06  7.7695e-07  0:00:21  984
    17  6.2847e-03  4.6101e-06  4.9724e-07  0:00:21  983
    18  4.1200e-03  2.7597e-06  3.1793e-07  0:00:20  982
    19  2.6959e-03  1.6551e-06  2.0319e-07  0:00:20  981
    20  1.7647e-03  9.9678e-07  1.3042e-07  0:01:34  980
    21  1.1527e-03  6.0275e-07  8.4087e-08  0:01:20  979
    22  7.5521e-04  3.6551e-07  5.4147e-08  0:01:09  978

  iter  continuity  x-velocity  y-velocity     time/iter
    23  4.9508e-04  2.2216e-07  3.4785e-08  0:00:59  977
    24  3.2567e-04  1.3534e-07  2.2360e-08  0:00:52  976
    25  2.1445e-04  8.2675e-08  1.4340e-08  0:00:45  975
    26  1.4117e-04  5.0647e-08  9.1810e-09  0:00:40  974
    27  9.3010e-05  3.1111e-08  5.8626e-09  0:00:36  973
    28  6.1245e-05  1.9164e-08  3.7515e-09  0:00:33  972
    29  4.0352e-05  1.1851e-08  2.4108e-09  0:00:31  971
    30  2.6629e-05  7.3520e-09  1.5517e-09  0:00:28  970
    31  1.7580e-05  4.5721e-09  9.9897e-10  0:00:26  969
    32  1.1616e-05  2.8502e-09  6.4366e-10  0:00:26  968
    33  7.6723e-06  1.7808e-09  4.1472e-10  0:00:25  967

  iter  continuity  x-velocity  y-velocity     time/iter
    34  5.0661e-06  1.1155e-09  2.6769e-10  0:00:24  966
    35  3.3460e-06  7.0039e-10  1.7309e-10  0:00:23  965
    36  2.2117e-06  4.4103e-10  1.1217e-10  0:00:22  964
    37  1.4663e-06  2.8530e-10  7.5754e-11  0:00:21  963
    38  9.7693e-07  1.8550e-10  5.0831e-11  0:00:21  962
    39  6.5131e-07  1.2099e-10  3.3953e-11  0:00:20  961
    40  4.3433e-07  7.9325e-11  2.2651e-11  0:00:20  960
    41  2.8999e-07  5.2277e-11  1.5096e-11  0:00:20  959
    42  1.9422e-07  3.4634e-11  1.0071e-11  0:00:20  958
    43  1.3005e-07  2.3042e-11  6.7193e-12  0:00:19  957
    44  8.7050e-08  1.5391e-11  4.4848e-12  0:00:19  956

  iter  continuity  x-velocity  y-velocity     time/iter
    45  5.8232e-08  1.0308e-11  2.9983e-12  0:00:19  955
    46  3.8994e-08  6.9242e-12  2.0066e-12  0:00:19  954
    47  2.6133e-08  4.6640e-12  1.3453e-12  0:00:19  953
    48  1.7507e-08  3.1526e-12  9.0304e-13  0:00:19  952
    49  1.1728e-08  2.1403e-12  6.0740e-13  0:00:19  951
    50  7.8602e-09  1.4566e-12  4.0958e-13  0:00:20  950
    51  5.2696e-09  9.9351e-13  2.7691e-13  0:00:20  949
    52  3.5337e-09  6.7889e-13  1.8760e-13  0:00:19  948
    53  2.3702e-09  4.6464e-13  1.2730e-13  0:00:19  947
    54  1.5902e-09  3.1854e-13  8.6510e-14  0:00:19  946
    55  1.0672e-09  2.1869e-13  5.8901e-14  0:00:18  945

  iter  continuity  x-velocity  y-velocity     time/iter
    56  7.1669e-10  1.5045e-13  4.0191e-14  0:00:19  944
!   56 solution is converged

Calculation complete.
(cx-gui-do cx-activate-item "Information*OK")
(cx-gui-do cx-set-list-tree-selections "NavigationPane*Frame2*Table1*List_Tree2" (list "Solution|Methods"))
(cx-gui-do cx-set-list-tree-selections "NavigationPane*Frame2*Table1*List_Tree2" (list "Solution|Methods"))
(cx-gui-do cx-activate-item "NavigationPane*Frame2*Table1*List_Tree2")
(cx-gui-do cx-set-list-tree-selections "NavigationPane*Frame2*Table1*List_Tree2" (list "Solution|Methods"))
(cx-gui-do cx-set-list-tree-selections "NavigationPane*Frame2*Table1*List_Tree2" (list "Results|Graphics|Contours|contour-1"))
(cx-gui-do cx-set-list-tree-selections "NavigationPane*Frame2*Table1*List_Tree2" (list "Results|Graphics|Contours|contour-1"))
(cx-gui-do cx-activate-item "NavigationPane*Frame2*Table1*List_Tree2")
(cx-gui-do cx-set-list-tree-selections "NavigationPane*Frame2*Table1*List_Tree2" (list "Results|Graphics|Contours|contour-1"))
(cx-gui-do cx-activate-item "Contours*PanelButtons*PushButton1(OK)")
(cx-gui-do cx-activate-item "Contours*PanelButtons*PushButton2(Cancel)")
(cx-gui-do cx-set-list-tree-selections "NavigationPane*Frame2*Table1*List_Tree2" (list "Results|Graphics|Contours|contour-2"))
(cx-gui-do cx-set-list-tree-selections "NavigationPane*Frame2*Table1*List_Tree2" (list "Results|Graphics|Contours|contour-2"))
(cx-gui-do cx-activate-item "NavigationPane*Frame2*Table1*List_Tree2")
(cx-gui-do cx-set-list-tree-selections "NavigationPane*Frame2*Table1*List_Tree2" (list "Results|Graphics|Contours|contour-2"))
(cx-gui-do cx-activate-item "Contours*PanelButtons*PushButton1(OK)")
(cx-gui-do cx-activate-item "Contours*PanelButtons*PushButton2(Cancel)")
(cx-gui-do cx-set-list-tree-selections "NavigationPane*Frame2*Table1*List_Tree2" (list "Results|Plots|XY Plot|xy-plot-2"))
(cx-gui-do cx-set-list-tree-selections "NavigationPane*Frame2*Table1*List_Tree2" (list "Results|Plots|XY Plot|xy-plot-2"))
(cx-gui-do cx-activate-item "NavigationPane*Frame2*Table1*List_Tree2")
(cx-gui-do cx-set-list-tree-selections "NavigationPane*Frame2*Table1*List_Tree2" (list "Results|Plots|XY Plot|xy-plot-2"))
(cx-gui-do cx-activate-item "Solution XY Plot*PanelButtons*PushButton1(OK)")
(cx-gui-do cx-set-toggle-button2 "Solution XY Plot*Table1*Table1*ButtonBox1(Options)*CheckButton4(Write to File)" #t)
(cx-gui-do cx-activate-item "Solution XY Plot*Table1*Table1*ButtonBox1(Options)*CheckButton4(Write to File)")
(cx-gui-do cx-activate-item "Solution XY Plot*PanelButtons*PushButton1(OK)")
(cx-gui-do cx-set-file-dialog-entries "Select File" '( "outlet.txt") "XY Files (*.xy)")
(cx-gui-do cx-set-list-selections "Solution XY Plot*Table1*Table3*Frame3*List1(Surfaces)" '( 5 7))
(cx-gui-do cx-activate-item "Solution XY Plot*Table1*Table3*Frame3*List1(Surfaces)")
(cx-gui-do cx-set-list-selections "Solution XY Plot*Table1*Table3*Frame3*List1(Surfaces)" '( 5))
(cx-gui-do cx-activate-item "Solution XY Plot*Table1*Table3*Frame3*List1(Surfaces)")
(cx-gui-do cx-set-list-selections "Solution XY Plot*Table1*Table1*List2(File Data)" '())
(cx-gui-do cx-activate-item "Solution XY Plot*Table1*Table1*List2(File Data)")
(cx-gui-do cx-activate-item "Solution XY Plot*PanelButtons*PushButton2(Cancel)")
(cx-gui-do cx-set-list-tree-selections "NavigationPane*Frame2*Table1*List_Tree2" (list "Results|Plots|XY Plot|xy-plot-1"))
(cx-gui-do cx-set-list-tree-selections "NavigationPane*Frame2*Table1*List_Tree2" (list "Results|Plots|XY Plot|xy-plot-1"))
(cx-gui-do cx-activate-item "NavigationPane*Frame2*Table1*List_Tree2")
(cx-gui-do cx-set-list-tree-selections "NavigationPane*Frame2*Table1*List_Tree2" (list "Results|Plots|XY Plot|xy-plot-1"))
(cx-gui-do cx-activate-item "Solution XY Plot*PanelButtons*PushButton1(OK)")
(cx-gui-do cx-set-list-selections "Solution XY Plot*Table1*Table3*Frame3*List1(Surfaces)" '( 1 7))
(cx-gui-do cx-activate-item "Solution XY Plot*Table1*Table3*Frame3*List1(Surfaces)")
(cx-gui-do cx-set-list-selections "Solution XY Plot*Table1*Table3*Frame3*List1(Surfaces)" '( 1))
(cx-gui-do cx-activate-item "Solution XY Plot*Table1*Table3*Frame3*List1(Surfaces)")
(cx-gui-do cx-set-list-selections "Solution XY Plot*Table1*Table3*Frame3*List1(Surfaces)" '( 1 7))
(cx-gui-do cx-activate-item "Solution XY Plot*Table1*Table3*Frame3*List1(Surfaces)")
(cx-gui-do cx-set-list-selections "Solution XY Plot*Table1*Table3*Frame3*List1(Surfaces)" '( 1))
(cx-gui-do cx-activate-item "Solution XY Plot*Table1*Table3*Frame3*List1(Surfaces)")
(cx-gui-do cx-set-list-selections "Solution XY Plot*Table1*Table3*Frame3*List1(Surfaces)" '())
(cx-gui-do cx-activate-item "Solution XY Plot*Table1*Table3*Frame3*List1(Surfaces)")
(cx-gui-do cx-set-list-selections "Solution XY Plot*Table1*Table3*Frame3*List1(Surfaces)" '( 7))
(cx-gui-do cx-activate-item "Solution XY Plot*Table1*Table3*Frame3*List1(Surfaces)")
(cx-gui-do cx-set-list-selections "Solution XY Plot*Table1*Table3*Frame3*List1(Surfaces)" '())
(cx-gui-do cx-activate-item "Solution XY Plot*Table1*Table3*Frame3*List1(Surfaces)")
(cx-gui-do cx-set-list-selections "Solution XY Plot*Table1*Table3*Frame3*List1(Surfaces)" '( 7))
(cx-gui-do cx-activate-item "Solution XY Plot*Table1*Table3*Frame3*List1(Surfaces)")
(cx-gui-do cx-activate-item "Solution XY Plot*PanelButtons*PushButton1(OK)")
(cx-gui-do cx-set-real-entry-list "Solution XY Plot*Table1*Table2*ButtonBox1(Plot Direction)*RealEntry1(X)" '( 0))
(cx-gui-do cx-set-real-entry-list "Solution XY Plot*Table1*Table2*ButtonBox1(Plot Direction)*RealEntry2(Y)" '( 1))
(cx-gui-do cx-activate-item "Solution XY Plot*PanelButtons*PushButton1(OK)")
(cx-gui-do cx-set-toggle-button2 "Solution XY Plot*Table1*Table1*ButtonBox1(Options)*CheckButton4(Write to File)" #t)
(cx-gui-do cx-activate-item "Solution XY Plot*Table1*Table1*ButtonBox1(Options)*CheckButton4(Write to File)")
(cx-gui-do cx-activate-item "Solution XY Plot*PanelButtons*PushButton1(OK)")
(cx-gui-do cx-set-file-dialog-entries "Select File" '( "1.8.txt") "XY Files (*.xy)")
(cx-gui-do cx-activate-item "Solution XY Plot*PanelButtons*PushButton2(Cancel)")
(cx-gui-do cx-set-list-tree-selections "NavigationPane*Frame2*Table1*List_Tree2" (list "Results|Graphics|Mesh|mesh-1"))
(cx-gui-do cx-set-list-tree-selections "NavigationPane*Frame2*Table1*List_Tree2" (list "Results|Graphics|Mesh|mesh-1"))
(cx-gui-do cx-activate-item "NavigationPane*Frame2*Table1*List_Tree2")
(cx-gui-do cx-set-list-tree-selections "NavigationPane*Frame2*Table1*List_Tree2" (list "Results|Graphics|Mesh|mesh-1"))
(cx-gui-do cx-activate-item "Mesh Display*PanelButtons*PushButton1(OK)")
(cx-gui-do cx-activate-item "Mesh Display*PanelButtons*PushButton2(Cancel)")
(cx-gui-do cx-activate-item "MenuBar*ReadSubMenu*Case...")
(cx-gui-do cx-activate-item "Question*OK")
(cx-gui-do cx-set-file-dialog-entries "Select File" '( "C:/Users/y.chavali.176/OneDrive - Cranfield University/fm_assignment/2m_geometry_400x40/fine2m.cas.h5") "CFF Case Files (*.cas.h5 *.msh.h5 *.MSH.h5 )")
Note: Rank = 0: Process affinity not being set (6).

       Clearing partially read grid.

Reading from 37PCL046:"C:/Users/y.chavali.176/OneDrive - Cranfield University/fm_assignment/2m_geometry_400x40/fine2m.cas.h5" in NODE0 mode ...
  Reading mesh ...
         891 cells,     1 cell zone  ...
            891 quadrilateral cells,  zone id: 8
        1890 faces,     5 face zones ...
           1674 2D interior faces,  zone id: 9
              9 2D velocity-inlet faces,  zone id: 10
              9 2D pressure-outlet faces,  zone id: 11
             99 2D wall faces,  zone id: 12
             99 2D wall faces,  zone id: 13
        1000 nodes,     1 node zone  ...
  Done.


Building...
     mesh
     materials,
     interface,
     domains,
	mixture
     zones,
	bottomwall
	topwall
	outlet
	inlet
	int_fluid
	fluid
     parallel,
Done.
(cx-gui-do cx-activate-item "MenuBar*ReadSubMenu*Mesh...")
(cx-gui-do cx-activate-item "Read Mesh Options*PanelButtons*PushButton1(OK)")
(cx-gui-do cx-set-file-dialog-entries "Select File" '( "fine.msh") "All Mesh Files (*.msh* *.MSH* )")

Writing Settings file "C:\Users\YCHAVA~1.176\AppData\Local\Temp\3"...
	writing rp variables ... Done.
	writing domain variables ... Done.
	writing fluid (type fluid) (mixture) ... Done.
	writing int_fluid (type interior) (mixture) ... Done.
	writing inlet (type velocity-inlet) (mixture) ... Done.
	writing outlet (type pressure-outlet) (mixture) ... Done.
	writing topwall (type wall) (mixture) ... Done.
	writing bottomwall (type wall) (mixture) ... Done.
	writing zones map name-id ... Done.
Note: Rank = 0: Process affinity not being set (6).
Reading "C:/Users/y.chavali.176/OneDrive - Cranfield University/fm_assignment/2m_geometry_400x40/fine.msh"...
Buffering for file scan...


       Clearing partially read grid.
   16000 nodes.
   15561 quadrilateral cells, zone  8.
   30684 2D interior faces, zone  9.
      39 2D velocity-inlet faces, zone 10.
      39 2D pressure-outlet faces, zone 11.
     399 2D wall faces, zone 12.
     399 2D wall faces, zone 13.

Building...
     mesh
     materials,
     interface,
     domains,
     zones,
	bottomwall
	topwall
	outlet
	inlet
	int_fluid
	fluid
     parallel,
Done.
 Setting zone id of fluid to 8.
 Setting zone id of int_fluid to 9.
 Setting zone id of inlet to 10.
 Setting zone id of outlet to 11.
 Setting zone id of topwall to 12.
 Setting zone id of bottomwall to 13.
Done.

Setting fluid (mixture) ... Done.
Setting int_fluid (mixture) ... Done.
Setting inlet (mixture) ... Done.
Setting outlet (mixture) ... Done.
Setting topwall (mixture) ... Done.
Setting bottomwall (mixture) ... Done.

(cx-gui-do cx-activate-item "Ribbon*Frame1*Frame2(Domain)*Table1*Table3(Mesh)*PushButton1(Display)")
(cx-gui-do cx-activate-item "Mesh Display*PanelButtons*PushButton1(OK)")
(cx-gui-do cx-activate-item "Mesh Display*PanelButtons*PushButton2(Cancel)")
(cx-gui-do cx-set-list-tree-selections "NavigationPane*Frame2*Table1*List_Tree2" (list ))
(cx-gui-do cx-set-list-tree-selections "NavigationPane*Frame2*Table1*List_Tree2" (list "Solution|Initialization"))
(cx-gui-do cx-set-list-tree-selections "NavigationPane*Frame2*Table1*List_Tree2" (list "Solution|Initialization"))
(cx-gui-do cx-activate-item "NavigationPane*Frame2*Table1*List_Tree2")
(cx-gui-do cx-set-list-tree-selections "NavigationPane*Frame2*Table1*List_Tree2" (list "Solution|Initialization"))
(cx-gui-do cx-set-list-selections "Solution Initialization*Table1*DropDownList1(Compute from)" '( 1))
(cx-gui-do cx-activate-item "Solution Initialization*Table1*DropDownList1(Compute from)")
(cx-gui-do cx-activate-item "Solution Initialization*Table1*Frame9*PushButton1(Initialize)")
(cx-gui-do cx-activate-item "Solution Initialization*Table1*Frame9*PushButton1(Initialize)")
(cx-gui-do cx-activate-item "Question*OK")
(cx-gui-do cx-set-list-tree-selections "NavigationPane*Frame2*Table1*List_Tree2" (list "Solution|Run Calculation"))
(cx-gui-do cx-set-list-tree-selections "NavigationPane*Frame2*Table1*List_Tree2" (list "Solution|Run Calculation"))
(cx-gui-do cx-activate-item "NavigationPane*Frame2*Table1*List_Tree2")
(cx-gui-do cx-set-list-tree-selections "NavigationPane*Frame2*Table1*List_Tree2" (list "Solution|Run Calculation"))
(cx-gui-do cx-set-list-tree-selections "NavigationPane*Frame2*Table1*List_Tree2" (list "Solution|Run Calculation"))
(cx-gui-do cx-activate-item "Run Calculation*Table1*Table6(Solution Advancement)*Table1*PushButton3(Calculate)")


  iter  continuity  x-velocity  y-velocity     time/iter
     1  0.0000e+00  2.1838e-02  0.0000e+00  0:00:41  999
     2  1.0000e+00  1.1621e-02  7.6577e-05  0:01:07  998

 Reversed flow on 2 faces (5.1% area) of pressure-outlet 11.
     3  1.0000e+00  6.1119e-03  7.3321e-05  0:01:02  997

 Reversed flow on 4 faces (10.3% area) of pressure-outlet 11.
     4  8.8116e-01  3.1954e-03  5.4973e-05  0:00:58  996

 Reversed flow on 4 faces (10.3% area) of pressure-outlet 11.
     5  5.9314e-01  1.6979e-03  3.6000e-05  0:00:54  995
     6  4.1187e-01  9.3864e-04  2.4600e-05  0:00:51  994
     7  3.8134e-01  5.2333e-04  1.9968e-05  0:00:49  993
     8  3.3426e-01  2.8553e-04  1.4550e-05  0:00:47  992
     9  2.4866e-01  1.5280e-04  9.6489e-06  0:00:45  991
    10  1.5283e-01  8.8303e-05  5.8650e-06  0:00:44  990
    11  7.7953e-02  5.2641e-05  3.3755e-06  0:00:43  989

  iter  continuity  x-velocity  y-velocity     time/iter
    12  5.4492e-02  3.0825e-05  2.0377e-06  0:00:42  988
    13  4.2747e-02  1.6804e-05  1.4262e-06  0:00:42  987
    14  2.7080e-02  1.0425e-05  9.2885e-07  0:00:41  986
    15  1.4076e-02  6.8893e-06  5.5179e-07  0:00:41  985
    16  1.1743e-02  4.3832e-06  3.9744e-07  0:00:41  984
    17  1.0267e-02  2.4344e-06  2.9941e-07  0:00:40  983
    18  7.0972e-03  1.3909e-06  1.9758e-07  0:00:40  982
    19  3.9007e-03  1.0051e-06  1.1147e-07  0:00:39  981
    20  2.1169e-03  6.9339e-07  6.4813e-08  0:00:39  980
    21  1.8758e-03  4.0204e-07  5.1197e-08  0:00:39  979
    22  1.3852e-03  2.2035e-07  3.5944e-08  0:00:39  978

  iter  continuity  x-velocity  y-velocity     time/iter
    23  7.9629e-04  1.7015e-07  2.1800e-08  0:00:40  977
    24  4.5279e-04  1.2563e-07  1.3239e-08  0:00:39  976
    25  4.2782e-04  7.6202e-08  1.1369e-08  0:00:39  975
    26  3.3358e-04  3.8214e-08  8.0244e-09  0:00:40  974
    27  2.0365e-04  2.9392e-08  4.7904e-09  0:00:40  973
    28  1.0581e-04  2.3434e-08  2.6596e-09  0:00:39  972
    29  8.5344e-05  1.4946e-08  2.1098e-09  0:00:39  971
    30  7.0699e-05  7.5037e-09  1.6214e-09  0:00:38  970
    31  4.5305e-05  5.6974e-09  1.0518e-09  0:00:38  969
    32  2.3533e-05  4.6266e-09  5.9776e-10  0:00:37  968
    33  1.8547e-05  3.0604e-09  4.6587e-10  0:00:36  967

  iter  continuity  x-velocity  y-velocity     time/iter
    34  1.5847e-05  1.5267e-09  3.6866e-10  0:00:36  966
    35  1.0542e-05  1.0422e-09  2.4339e-10  0:00:35  965
    36  5.9266e-06  9.1994e-10  1.3528e-10  0:00:36  964
    37  4.1523e-06  6.4109e-10  9.4660e-11  0:00:35  963
    38  3.5790e-06  3.2980e-10  7.7673e-11  0:00:35  962
    39  2.4316e-06  2.1052e-10  5.2434e-11  0:00:35  961
    40  1.3788e-06  1.8589e-10  3.0404e-11  0:00:35  960
    41  9.1815e-07  1.3432e-10  2.1142e-11  0:00:35  959
!   41 solution is converged

Calculation complete.
(cx-gui-do cx-set-list-tree-selections "NavigationPane*Frame2*Table1*List_Tree2" (list "Solution|Monitors|Residual"))
(cx-gui-do cx-set-list-tree-selections "NavigationPane*Frame2*Table1*List_Tree2" (list "Solution|Monitors|Residual"))
(cx-gui-do cx-activate-item "NavigationPane*Frame2*Table1*List_Tree2")
(cx-gui-do cx-set-list-tree-selections "NavigationPane*Frame2*Table1*List_Tree2" (list "Solution|Monitors|Residual"))
(cx-gui-do cx-set-real-entry-list "Residual Monitors*Table1*Table2*Table1*Table1(Equations)*RealEntry11" '( 1e-09))
(cx-gui-do cx-set-real-entry-list "Residual Monitors*Table1*Table2*Table1*Table1(Equations)*RealEntry17" '( 1e-09))
(cx-gui-do cx-set-real-entry-list "Residual Monitors*Table1*Table2*Table1*Table1(Equations)*RealEntry23" '( 1e-09))
(cx-gui-do cx-activate-item "Residual Monitors*PanelButtons*PushButton1(OK)")
(cx-gui-do cx-activate-item "Information*OK")
(cx-gui-do cx-set-list-tree-selections "NavigationPane*Frame2*Table1*List_Tree2" (list "Solution|Initialization"))
(cx-gui-do cx-set-list-tree-selections "NavigationPane*Frame2*Table1*List_Tree2" (list "Solution|Initialization"))
(cx-gui-do cx-activate-item "NavigationPane*Frame2*Table1*List_Tree2")
(cx-gui-do cx-set-list-tree-selections "NavigationPane*Frame2*Table1*List_Tree2" (list "Solution|Initialization"))
(cx-gui-do cx-activate-item "Solution Initialization*Table1*Frame9*PushButton1(Initialize)")
(cx-gui-do cx-activate-item "Question*OK")
(cx-gui-do cx-set-list-tree-selections "NavigationPane*Frame2*Table1*List_Tree2" (list "Solution|Run Calculation"))
(cx-gui-do cx-set-list-tree-selections "NavigationPane*Frame2*Table1*List_Tree2" (list "Solution|Run Calculation"))
(cx-gui-do cx-activate-item "NavigationPane*Frame2*Table1*List_Tree2")
(cx-gui-do cx-set-list-tree-selections "NavigationPane*Frame2*Table1*List_Tree2" (list "Solution|Run Calculation"))
(cx-gui-do cx-activate-item "Run Calculation*Table1*Table6(Solution Advancement)*Table1*PushButton3(Calculate)")


  iter  continuity  x-velocity  y-velocity     time/iter
     1  0.0000e+00  2.1838e-02  0.0000e+00  0:00:36  999
     2  1.0000e+00  1.1621e-02  7.6577e-05  0:00:41  998

 Reversed flow on 2 faces (5.1% area) of pressure-outlet 11.
     3  1.0000e+00  6.1119e-03  7.3321e-05  0:00:41  997

 Reversed flow on 4 faces (10.3% area) of pressure-outlet 11.
     4  8.8116e-01  3.1954e-03  5.4973e-05  0:00:41  996

 Reversed flow on 4 faces (10.3% area) of pressure-outlet 11.
     5  5.9314e-01  1.6979e-03  3.6000e-05  0:00:41  995
     6  4.1187e-01  9.3864e-04  2.4600e-05  0:00:41  994
     7  3.8134e-01  5.2333e-04  1.9968e-05  0:00:40  993
     8  3.3426e-01  2.8553e-04  1.4550e-05  0:00:41  992
     9  2.4866e-01  1.5280e-04  9.6489e-06  0:00:42  991
    10  1.5283e-01  8.8303e-05  5.8650e-06  0:00:41  990
    11  7.7953e-02  5.2641e-05  3.3755e-06  0:00:41  989

  iter  continuity  x-velocity  y-velocity     time/iter
    12  5.4492e-02  3.0825e-05  2.0377e-06  0:00:42  988
    13  4.2747e-02  1.6804e-05  1.4262e-06  0:00:41  987
    14  2.7080e-02  1.0425e-05  9.2885e-07  0:00:40  986
    15  1.4076e-02  6.8893e-06  5.5179e-07  0:00:40  985
    16  1.1743e-02  4.3832e-06  3.9744e-07  0:00:40  984
    17  1.0267e-02  2.4344e-06  2.9941e-07  0:00:39  983
    18  7.0972e-03  1.3909e-06  1.9758e-07  0:00:39  982
    19  3.9007e-03  1.0051e-06  1.1147e-07  0:00:40  981
    20  2.1169e-03  6.9339e-07  6.4813e-08  0:00:39  980
    21  1.8758e-03  4.0204e-07  5.1197e-08  0:00:39  979
    22  1.3852e-03  2.2035e-07  3.5944e-08  0:00:39  978

  iter  continuity  x-velocity  y-velocity     time/iter
    23  7.9629e-04  1.7015e-07  2.1800e-08  0:00:40  977
    24  4.5279e-04  1.2563e-07  1.3239e-08  0:00:39  976
    25  4.2782e-04  7.6202e-08  1.1369e-08  0:00:39  975
    26  3.3358e-04  3.8214e-08  8.0244e-09  0:00:39  974
    27  2.0365e-04  2.9392e-08  4.7904e-09  0:00:39  973
    28  1.0581e-04  2.3434e-08  2.6596e-09  0:00:38  972
    29  8.5344e-05  1.4946e-08  2.1098e-09  0:00:37  971
    30  7.0699e-05  7.5037e-09  1.6214e-09  0:00:37  970
    31  4.5305e-05  5.6974e-09  1.0518e-09  0:00:37  969
    32  2.3533e-05  4.6266e-09  5.9776e-10  0:00:37  968
    33  1.8547e-05  3.0604e-09  4.6587e-10  0:00:37  967

  iter  continuity  x-velocity  y-velocity     time/iter
    34  1.5847e-05  1.5267e-09  3.6866e-10  0:00:36  966
    35  1.0542e-05  1.0422e-09  2.4339e-10  0:00:36  965
    36  5.9266e-06  9.1994e-10  1.3528e-10  0:00:36  964
    37  4.1523e-06  6.4109e-10  9.4660e-11  0:00:36  963
    38  3.5790e-06  3.2980e-10  7.7673e-11  0:00:36  962
    39  2.4316e-06  2.1052e-10  5.2434e-11  0:00:36  961
    40  1.3788e-06  1.8589e-10  3.0404e-11  0:00:36  960
    41  9.1815e-07  1.3432e-10  2.1142e-11  0:00:35  959
    42  7.9237e-07  7.1241e-11  1.7606e-11  0:00:35  958
    43  5.7616e-07  4.0270e-11  1.2265e-11  0:00:36  957
    44  3.5371e-07  3.7599e-11  7.1864e-12  0:00:35  956

  iter  continuity  x-velocity  y-velocity     time/iter
    45  2.1973e-07  2.8605e-11  4.4494e-12  0:00:35  955
    46  1.7667e-07  1.5809e-11  3.6206e-12  0:00:35  954
    47  1.2795e-07  8.5575e-12  2.6016e-12  0:00:34  953
    48  7.8189e-08  7.8612e-12  1.5869e-12  0:00:34  952
    49  4.8026e-08  6.1480e-12  9.9664e-13  0:00:34  951
    50  3.9464e-08  3.5812e-12  8.2924e-13  0:00:34  950
    51  3.0149e-08  1.8231e-12  6.0533e-13  0:00:34  949
    52  1.9712e-08  1.6462e-12  3.7883e-13  0:00:34  948
    53  1.2053e-08  1.3414e-12  2.2970e-13  0:00:34  947
    54  9.1458e-09  8.0984e-13  1.8162e-13  0:00:34  946
    55  6.8561e-09  4.1177e-13  1.3625e-13  0:00:34  945

  iter  continuity  x-velocity  y-velocity     time/iter
    56  4.4715e-09  3.6183e-13  8.7879e-14  0:00:35  944
    57  2.7616e-09  2.9802e-13  5.3010e-14  0:00:35  943
    58  2.0962e-09  1.8971e-13  4.2577e-14  0:00:35  942
    59  1.6167e-09  9.6330e-14  3.2005e-14  0:00:34  941
    60  1.1119e-09  7.8566e-14  2.1104e-14  0:00:35  940
    61  7.0366e-10  6.5962e-14  1.3113e-14  0:00:35  939
!   61 solution is converged

Calculation complete.
(cx-gui-do cx-activate-item "Information*OK")
(cx-gui-do cx-set-list-tree-selections "NavigationPane*Frame2*Table1*List_Tree2" (list "Results|Graphics|Contours|contour-1"))
(cx-gui-do cx-set-list-tree-selections "NavigationPane*Frame2*Table1*List_Tree2" (list "Results|Graphics|Contours|contour-1"))
(cx-gui-do cx-activate-item "NavigationPane*Frame2*Table1*List_Tree2")
(cx-gui-do cx-set-list-tree-selections "NavigationPane*Frame2*Table1*List_Tree2" (list "Results|Graphics|Contours|contour-1"))
(cx-gui-do cx-activate-item "Contours*PanelButtons*PushButton1(OK)")
(cx-gui-do cx-set-list-tree-selections "NavigationPane*Frame2*Table1*List_Tree2" (list "Results|Surfaces|x=1.8"))
(cx-gui-do cx-set-list-tree-selections "NavigationPane*Frame2*Table1*List_Tree2" (list "Results|Surfaces|x=1.8"))
(cx-gui-do cx-activate-item "NavigationPane*Frame2*Table1*List_Tree2")
(cx-gui-do cx-set-list-tree-selections "NavigationPane*Frame2*Table1*List_Tree2" (list "Results|Surfaces|x=1.8"))
(cx-gui-do cx-activate-item "Line/Rake Surface*PanelButtons*PushButton1(OK)")
(cx-gui-do cx-activate-item "Line/Rake Surface*PanelButtons*PushButton2(Cancel)")
(cx-gui-do cx-set-list-tree-selections "NavigationPane*Frame2*Table1*List_Tree2" (list "Results|Plots|XY Plot|xy-plot-1"))
(cx-gui-do cx-set-list-tree-selections "NavigationPane*Frame2*Table1*List_Tree2" (list "Results|Plots|XY Plot|xy-plot-1"))
(cx-gui-do cx-activate-item "NavigationPane*Frame2*Table1*List_Tree2")
(cx-gui-do cx-set-list-tree-selections "NavigationPane*Frame2*Table1*List_Tree2" (list "Results|Plots|XY Plot|xy-plot-1"))
(cx-gui-do cx-activate-item "Solution XY Plot*PanelButtons*PushButton1(OK)")
(cx-gui-do cx-set-real-entry-list "Solution XY Plot*Table1*Table2*ButtonBox1(Plot Direction)*RealEntry1(X)" '( 0))
(cx-gui-do cx-set-real-entry-list "Solution XY Plot*Table1*Table2*ButtonBox1(Plot Direction)*RealEntry2(Y)" '( 1))
(cx-gui-do cx-set-list-selections "Solution XY Plot*Table1*Table3*Frame3*List1(Surfaces)" '( 1 7))
(cx-gui-do cx-activate-item "Solution XY Plot*Table1*Table3*Frame3*List1(Surfaces)")
(cx-gui-do cx-activate-item "Solution XY Plot*PanelButtons*PushButton1(OK)")
(cx-gui-do cx-set-list-selections "Solution XY Plot*Table1*Table3*Frame3*List1(Surfaces)" '( 7))
(cx-gui-do cx-activate-item "Solution XY Plot*Table1*Table3*Frame3*List1(Surfaces)")
(cx-gui-do cx-activate-item "Solution XY Plot*PanelButtons*PushButton1(OK)")
(cx-gui-do cx-set-toggle-button2 "Solution XY Plot*Table1*Table1*ButtonBox1(Options)*CheckButton4(Write to File)" #t)
(cx-gui-do cx-activate-item "Solution XY Plot*Table1*Table1*ButtonBox1(Options)*CheckButton4(Write to File)")
(cx-gui-do cx-activate-item "Solution XY Plot*PanelButtons*PushButton1(OK)")
(cx-gui-do cx-set-file-dialog-entries "Select File" '( "C:/Users/y.chavali.176/OneDrive - Cranfield University/fm_assignment/2m_geometry_400x40/1.8.txt") "XY Files (*.xy)")
(cx-gui-do cx-activate-item "Solution XY Plot*PanelButtons*PushButton2(Cancel)")
(cx-gui-do cx-set-list-tree-selections "NavigationPane*Frame2*Table1*List_Tree2" (list "Results|Plots|XY Plot|xy-plot-2"))
(cx-gui-do cx-set-list-tree-selections "NavigationPane*Frame2*Table1*List_Tree2" (list "Results|Plots|XY Plot|xy-plot-2"))
(cx-gui-do cx-activate-item "NavigationPane*Frame2*Table1*List_Tree2")
(cx-gui-do cx-set-list-tree-selections "NavigationPane*Frame2*Table1*List_Tree2" (list "Results|Plots|XY Plot|xy-plot-2"))
(cx-gui-do cx-activate-item "Solution XY Plot*PanelButtons*PushButton1(OK)")
(cx-gui-do cx-set-toggle-button2 "Solution XY Plot*Table1*Table1*ButtonBox1(Options)*CheckButton4(Write to File)" #t)
(cx-gui-do cx-activate-item "Solution XY Plot*Table1*Table1*ButtonBox1(Options)*CheckButton4(Write to File)")
(cx-gui-do cx-activate-item "Solution XY Plot*PanelButtons*PushButton1(OK)")
(cx-gui-do cx-set-file-dialog-entries "Select File" '( "outlet.txt") "XY Files (*.xy)")
(cx-gui-do cx-activate-item "Solution XY Plot*PanelButtons*PushButton1(OK)")
(cx-gui-do cx-activate-item "Solution XY Plot*PanelButtons*PushButton2(Cancel)")
(cx-gui-do cx-activate-item "MenuBar*ReadSubMenu*Mesh...")
(cx-gui-do cx-activate-item "Read Mesh Options*PanelButtons*PushButton1(OK)")
(cx-gui-do cx-set-file-dialog-entries "Select File" '( "finer.msh") "All Mesh Files (*.msh* *.MSH* )")

Writing Settings file "C:\Users\YCHAVA~1.176\AppData\Local\Temp\4"...
	writing rp variables ... Done.
	writing domain variables ... Done.
	writing fluid (type fluid) (mixture) ... Done.
	writing int_fluid (type interior) (mixture) ... Done.
	writing inlet (type velocity-inlet) (mixture) ... Done.
	writing outlet (type pressure-outlet) (mixture) ... Done.
	writing topwall (type wall) (mixture) ... Done.
	writing bottomwall (type wall) (mixture) ... Done.
	writing zones map name-id ... Done.
Note: Rank = 0: Process affinity not being set (6).
Reading "C:/Users/y.chavali.176/OneDrive - Cranfield University/fm_assignment/2m_geometry_400x40/finer.msh"...
Buffering for file scan...


       Clearing partially read grid.
  100000 nodes.
   98901 quadrilateral cells, zone  8.
  196704 2D interior faces, zone  9.
      99 2D velocity-inlet faces, zone 10.
      99 2D pressure-outlet faces, zone 11.
     999 2D wall faces, zone 12.
     999 2D wall faces, zone 13.

Building...
     mesh
     materials,
     interface,
     domains,
     zones,
	bottomwall
	topwall
	outlet
	inlet
	int_fluid
	fluid
     parallel,
Done.
 Setting zone id of fluid to 8.
 Setting zone id of int_fluid to 9.
 Setting zone id of inlet to 10.
 Setting zone id of outlet to 11.
 Setting zone id of topwall to 12.
 Setting zone id of bottomwall to 13.
Done.

Setting fluid (mixture) ... Done.
Setting int_fluid (mixture) ... Done.
Setting inlet (mixture) ... Done.
Setting outlet (mixture) ... Done.
Setting topwall (mixture) ... Done.
Setting bottomwall (mixture) ... Done.

(cx-gui-do cx-activate-item "MenuBar*ReadSubMenu*Mesh...")
(cx-gui-do cx-activate-item "Read Mesh Options*PanelButtons*PushButton1(OK)")
(cx-gui-do cx-set-file-dialog-entries "Select File" '( "C:/Users/y.chavali.176/OneDrive - Cranfield University/fm_assignment/2m_geometry_100x10/101x11.msh") "All Mesh Files (*.msh* *.MSH* )")

Writing Settings file "C:\Users\YCHAVA~1.176\AppData\Local\Temp\5"...
	writing rp variables ... Done.
	writing domain variables ... Done.
	writing fluid (type fluid) (mixture) ... Done.
	writing int_fluid (type interior) (mixture) ... Done.
	writing inlet (type velocity-inlet) (mixture) ... Done.
	writing outlet (type pressure-outlet) (mixture) ... Done.
	writing topwall (type wall) (mixture) ... Done.
	writing bottomwall (type wall) (mixture) ... Done.
	writing zones map name-id ... Done.
Note: Rank = 0: Process affinity not being set (6).
Reading "C:/Users/y.chavali.176/OneDrive - Cranfield University/fm_assignment/2m_geometry_100x10/101x11.msh"...
Buffering for file scan...


       Clearing partially read grid.
    1111 nodes.
    1000 quadrilateral cells, zone  8.
    1890 2D interior faces, zone  9.
      10 2D velocity-inlet faces, zone 10.
      10 2D pressure-outlet faces, zone 11.
     100 2D wall faces, zone 12.
     100 2D wall faces, zone 13.

Building...
     mesh
     materials,
     interface,
     domains,
     zones,
	bottomwall
	topwall
	outlet
	inlet
	int_fluid
	fluid
     parallel,
Done.
 Setting zone id of fluid to 8.
 Setting zone id of int_fluid to 9.
 Setting zone id of inlet to 10.
 Setting zone id of outlet to 11.
 Setting zone id of topwall to 12.
 Setting zone id of bottomwall to 13.
Done.

Setting fluid (mixture) ... Done.
Setting int_fluid (mixture) ... Done.
Setting inlet (mixture) ... Done.
Setting outlet (mixture) ... Done.
Setting topwall (mixture) ... Done.
Setting bottomwall (mixture) ... Done.

(cx-gui-do cx-activate-item "MenuBar*WriteSubMenu*Case...")
(cx-gui-do cx-set-file-dialog-entries "Select File" '( "coarse2m.cas.h5") "CFF Case Files (*.cas.h5 )")
(cx-gui-do cx-activate-item "Question*OK")

Writing to 37PCL046:"C:/Users/y.chavali.176/OneDrive - Cranfield University/fm_assignment/2m_geometry_100x10/coarse2m.cas.h5" in NODE0 mode and compression level 1 ...
Grouping cells for Laplace smoothing ...
        1000 cells,     1 zone  ...
        2110 faces,     5 zones ...
        1111 nodes,     1 zone  ...
  Done.
Done.
(cx-gui-do cx-activate-item "Ribbon*Frame1*Frame2(Domain)*Table1*Table3(Mesh)*PushButton1(Display)")
(cx-gui-do cx-activate-item "Mesh Display*PanelButtons*PushButton1(OK)")
(cx-gui-do cx-activate-item "Mesh Display*PanelButtons*PushButton2(Cancel)")
(cx-gui-do cx-set-list-tree-selections "NavigationPane*Frame2*Table1*List_Tree2" (list ))
(cx-gui-do cx-set-list-tree-selections "NavigationPane*Frame2*Table1*List_Tree2" (list "Solution|Monitors|Residual"))
(cx-gui-do cx-set-list-tree-selections "NavigationPane*Frame2*Table1*List_Tree2" (list "Solution|Monitors|Residual"))
(cx-gui-do cx-activate-item "NavigationPane*Frame2*Table1*List_Tree2")
(cx-gui-do cx-set-list-tree-selections "NavigationPane*Frame2*Table1*List_Tree2" (list "Solution|Monitors|Residual"))
(cx-gui-do cx-activate-item "Residual Monitors*PanelButtons*PushButton2(Cancel)")
(cx-gui-do cx-set-list-tree-selections "NavigationPane*Frame2*Table1*List_Tree2" (list "Solution|Initialization"))
(cx-gui-do cx-set-list-tree-selections "NavigationPane*Frame2*Table1*List_Tree2" (list "Solution|Initialization"))
(cx-gui-do cx-activate-item "NavigationPane*Frame2*Table1*List_Tree2")
(cx-gui-do cx-set-list-tree-selections "NavigationPane*Frame2*Table1*List_Tree2" (list "Solution|Initialization"))
(cx-gui-do cx-set-list-selections "Solution Initialization*Table1*DropDownList1(Compute from)" '( 1))
(cx-gui-do cx-activate-item "Solution Initialization*Table1*DropDownList1(Compute from)")
(cx-gui-do cx-activate-item "Solution Initialization*Table1*Frame9*PushButton1(Initialize)")
(cx-gui-do cx-set-list-tree-selections "NavigationPane*Frame2*Table1*List_Tree2" (list "Solution|Run Calculation"))
(cx-gui-do cx-set-list-tree-selections "NavigationPane*Frame2*Table1*List_Tree2" (list "Solution|Run Calculation"))
(cx-gui-do cx-activate-item "NavigationPane*Frame2*Table1*List_Tree2")
(cx-gui-do cx-set-list-tree-selections "NavigationPane*Frame2*Table1*List_Tree2" (list "Solution|Run Calculation"))
(cx-gui-do cx-activate-item "Run Calculation*Table1*Table6(Solution Advancement)*Table1*PushButton3(Calculate)")


  iter  continuity  x-velocity  y-velocity     time/iter
     1  0.0000e+00  6.1861e-02  0.0000e+00  0:00:11  999
     2  1.0000e+00  3.7027e-02  4.9431e-04  0:00:40  998
     3  1.0000e+00  2.1390e-02  4.9836e-04  0:00:35  997
     4  8.6680e-01  1.2341e-02  3.5019e-04  0:00:32  996
     5  6.4750e-01  7.1889e-03  2.2012e-04  0:01:41  995
     6  4.6868e-01  4.2166e-03  1.3617e-04  0:01:26  994
     7  3.4440e-01  2.4864e-03  8.9927e-05  0:01:12  993
     8  2.5294e-01  1.4658e-03  6.6412e-05  0:01:01  992
     9  1.8231e-01  8.6007e-04  4.7024e-05  0:00:53  991
    10  1.2830e-01  5.0227e-04  3.3140e-05  0:00:45  990
    11  8.8767e-02  2.9211e-04  2.2801e-05  0:00:39  989

  iter  continuity  x-velocity  y-velocity     time/iter
    12  6.1038e-02  1.7383e-04  1.5328e-05  0:00:35  988
    13  4.2695e-02  1.0461e-04  1.0270e-05  0:00:31  987
    14  2.9436e-02  6.2912e-05  6.7815e-06  0:00:28  986
    15  2.0063e-02  3.7811e-05  4.5009e-06  0:00:27  985
    16  1.3673e-02  2.2773e-05  2.9619e-06  0:00:24  984
    17  9.1651e-03  1.3692e-05  1.9483e-06  0:00:23  983
    18  6.0968e-03  8.2525e-06  1.2713e-06  0:00:24  982
    19  4.0274e-03  5.1057e-06  8.0923e-07  0:00:23  981
    20  2.6211e-03  3.1884e-06  5.1509e-07  0:00:21  980
    21  1.6891e-03  1.9738e-06  3.4351e-07  0:00:20  979
    22  1.1022e-03  1.1796e-06  2.2708e-07  0:00:19  978

  iter  continuity  x-velocity  y-velocity     time/iter
    23  7.2761e-04  6.8943e-07  1.5012e-07  0:00:19  977
    24  4.8358e-04  3.9611e-07  9.8750e-08  0:00:18  976
    25  3.1886e-04  2.3014e-07  6.4160e-08  0:00:18  975
    26  2.1257e-04  1.3872e-07  4.2370e-08  0:00:18  974
    27  1.4270e-04  8.6105e-08  2.7967e-08  0:00:17  973
    28  9.5192e-05  5.4420e-08  1.8318e-08  0:00:17  972
    29  6.3109e-05  3.6155e-08  1.1833e-08  0:00:17  971
    30  4.1731e-05  2.4659e-08  7.5489e-09  0:00:16  970
    31  2.7814e-05  1.6786e-08  4.8101e-09  0:00:16  969
    32  1.8699e-05  1.0972e-08  3.1433e-09  0:00:17  968
    33  1.2473e-05  6.4756e-09  2.1342e-09  0:00:16  967

  iter  continuity  x-velocity  y-velocity     time/iter
    34  8.3122e-06  3.8102e-09  1.4435e-09  0:00:16  966
    35  5.5751e-06  2.2447e-09  9.6428e-10  0:00:16  965
    36  3.8035e-06  1.3472e-09  6.4962e-10  0:00:16  964
    37  2.6011e-06  8.6124e-10  4.4043e-10  0:00:16  963
    38  1.7715e-06  5.7631e-10  2.9793e-10  0:00:16  962
    39  1.2065e-06  4.4551e-10  2.0118e-10  0:00:16  961
    40  8.2143e-07  3.5196e-10  1.3540e-10  0:00:16  960
    41  5.6018e-07  2.5929e-10  9.1812e-11  0:00:16  959
    42  3.8994e-07  1.9252e-10  6.5048e-11  0:00:17  958
    43  2.7103e-07  1.2268e-10  4.4365e-11  0:00:17  957
    44  1.8988e-07  6.4159e-11  3.1037e-11  0:00:18  956

  iter  continuity  x-velocity  y-velocity     time/iter
    45  1.3545e-07  3.4562e-11  2.2262e-11  0:00:18  955
    46  9.6544e-08  1.7110e-11  1.5896e-11  0:00:18  954
    47  6.7981e-08  1.0794e-11  1.1055e-11  0:00:18  953
    48  4.8064e-08  8.7985e-12  7.7470e-12  0:00:17  952
    49  3.3891e-08  7.7118e-12  5.3953e-12  0:00:16  951
    50  2.3928e-08  6.3917e-12  3.7498e-12  0:00:17  950
    51  1.6971e-08  4.8094e-12  2.6084e-12  0:00:17  949
    52  1.2138e-08  3.3389e-12  1.8368e-12  0:00:17  948
    53  8.8516e-09  2.4349e-12  1.3400e-12  0:00:16  947
    54  6.5312e-09  1.6677e-12  9.7529e-13  0:00:16  946
    55  4.6590e-09  7.9143e-13  6.9905e-13  0:00:16  945

  iter  continuity  x-velocity  y-velocity     time/iter
    56  3.3271e-09  4.8625e-13  5.0603e-13  0:00:16  944
    57  2.3916e-09  3.9911e-13  3.6908e-13  0:00:16  943
    58  1.7121e-09  3.6722e-13  2.6779e-13  0:00:16  942
    59  1.2215e-09  3.0605e-13  1.9327e-13  0:00:16  941
    60  8.7123e-10  2.3534e-13  1.3939e-13  0:00:15  940
!   60 solution is converged

Calculation complete.
(cx-gui-do cx-set-list-tree-selections "NavigationPane*Frame2*Table1*List_Tree2" (list "Results|Surfaces|centreline"))
(cx-gui-do cx-set-list-tree-selections "NavigationPane*Frame2*Table1*List_Tree2" (list "Results|Surfaces|centreline"))
(cx-gui-do cx-activate-item "NavigationPane*Frame2*Table1*List_Tree2")
(cx-gui-do cx-set-list-tree-selections "NavigationPane*Frame2*Table1*List_Tree2" (list "Results|Surfaces|centreline"))
(cx-gui-do cx-activate-item "Line/Rake Surface*PanelButtons*PushButton2(Cancel)")
(cx-gui-do cx-set-list-tree-selections "NavigationPane*Frame2*Table1*List_Tree2" (list "Results|Plots|XY Plot|xy-plot-2"))
(cx-gui-do cx-set-list-tree-selections "NavigationPane*Frame2*Table1*List_Tree2" (list "Results|Plots|XY Plot|xy-plot-2"))
(cx-gui-do cx-activate-item "NavigationPane*Frame2*Table1*List_Tree2")
(cx-gui-do cx-set-list-tree-selections "NavigationPane*Frame2*Table1*List_Tree2" (list "Results|Plots|XY Plot|xy-plot-2"))
(cx-gui-do cx-activate-item "Solution XY Plot*PanelButtons*PushButton1(OK)")
(cx-gui-do cx-set-toggle-button2 "Solution XY Plot*Table1*Table1*ButtonBox1(Options)*CheckButton4(Write to File)" #t)
(cx-gui-do cx-activate-item "Solution XY Plot*Table1*Table1*ButtonBox1(Options)*CheckButton4(Write to File)")
(cx-gui-do cx-activate-item "Solution XY Plot*PanelButtons*PushButton1(OK)")
(cx-gui-do cx-set-file-dialog-entries "Select File" '( "C:/Users/y.chavali.176/OneDrive - Cranfield University/fm_assignment/2m_geometry_100x10/outlet.txt") "All Files (*)")
(cx-gui-do cx-activate-item "Question*OK")
(cx-gui-do cx-activate-item "Information*OK")
(cx-gui-do cx-activate-item "Solution XY Plot*PanelButtons*PushButton2(Cancel)")
(cx-gui-do cx-set-list-tree-selections "NavigationPane*Frame2*Table1*List_Tree2" (list "Results|Plots|XY Plot|xy-plot-1"))
(cx-gui-do cx-set-list-tree-selections "NavigationPane*Frame2*Table1*List_Tree2" (list "Results|Plots|XY Plot|xy-plot-1"))
(cx-gui-do cx-activate-item "NavigationPane*Frame2*Table1*List_Tree2")
(cx-gui-do cx-set-list-tree-selections "NavigationPane*Frame2*Table1*List_Tree2" (list "Results|Plots|XY Plot|xy-plot-1"))
(cx-gui-do cx-activate-item "Solution XY Plot*PanelButtons*PushButton1(OK)")
(cx-gui-do cx-set-toggle-button2 "Solution XY Plot*Table1*Table1*ButtonBox1(Options)*CheckButton4(Write to File)" #t)
(cx-gui-do cx-activate-item "Solution XY Plot*Table1*Table1*ButtonBox1(Options)*CheckButton4(Write to File)")
(cx-gui-do cx-activate-item "Solution XY Plot*PanelButtons*PushButton1(OK)")
(cx-gui-do cx-set-file-dialog-entries "Select File" '( "uprofile_1.8.txt") "All Files (*)")
(cx-gui-do cx-activate-item "Question*OK")
(cx-gui-do cx-activate-item "Solution XY Plot*PanelButtons*PushButton2(Cancel)")
(cx-gui-do cx-activate-item "MenuBar*ReadSubMenu*Mesh...")
(cx-gui-do cx-activate-item "Read Mesh Options*PanelButtons*PushButton1(OK)")
(cx-gui-do cx-set-file-dialog-entries "Select File" '( "C:/Users/y.chavali.176/OneDrive - Cranfield University/fm_assignment/2m_geometry_200x20/201x21.msh") "All Mesh Files (*.msh* *.MSH* )")

Writing Settings file "C:\Users\YCHAVA~1.176\AppData\Local\Temp\6"...
	writing rp variables ... Done.
	writing domain variables ... Done.
	writing fluid (type fluid) (mixture) ... Done.
	writing int_fluid (type interior) (mixture) ... Done.
	writing inlet (type velocity-inlet) (mixture) ... Done.
	writing outlet (type pressure-outlet) (mixture) ... Done.
	writing topwall (type wall) (mixture) ... Done.
	writing bottomwall (type wall) (mixture) ... Done.
	writing zones map name-id ... Done.
Note: Rank = 0: Process affinity not being set (6).
Reading "C:/Users/y.chavali.176/OneDrive - Cranfield University/fm_assignment/2m_geometry_200x20/201x21.msh"...
Buffering for file scan...


       Clearing partially read grid.
    4221 nodes.
    4000 quadrilateral cells, zone  8.
    7780 2D interior faces, zone  9.
      20 2D velocity-inlet faces, zone 10.
      20 2D pressure-outlet faces, zone 11.
     200 2D wall faces, zone 12.
     200 2D wall faces, zone 13.

Building...
     mesh
     materials,
     interface,
     domains,
     zones,
	bottomwall
	topwall
	outlet
	inlet
	int_fluid
	fluid
     parallel,
Done.
 Setting zone id of fluid to 8.
 Setting zone id of int_fluid to 9.
 Setting zone id of inlet to 10.
 Setting zone id of outlet to 11.
 Setting zone id of topwall to 12.
 Setting zone id of bottomwall to 13.
Done.

Setting fluid (mixture) ... Done.
Setting int_fluid (mixture) ... Done.
Setting inlet (mixture) ... Done.
Setting outlet (mixture) ... Done.
Setting topwall (mixture) ... Done.
Setting bottomwall (mixture) ... Done.

(cx-gui-do cx-activate-item "Ribbon*Frame1*Frame2(Domain)*Table1*Table3(Mesh)*PushButton1(Display)")
(cx-gui-do cx-activate-item "Mesh Display*PanelButtons*PushButton1(OK)")
(cx-gui-do cx-set-list-tree-selections "NavigationPane*Frame2*Table1*List_Tree2" (list "Solution|Initialization"))
(cx-gui-do cx-set-list-tree-selections "NavigationPane*Frame2*Table1*List_Tree2" (list "Solution|Initialization"))
(cx-gui-do cx-activate-item "NavigationPane*Frame2*Table1*List_Tree2")
(cx-gui-do cx-set-list-tree-selections "NavigationPane*Frame2*Table1*List_Tree2" (list "Solution|Initialization"))
(cx-gui-do cx-set-list-selections "Solution Initialization*Table1*DropDownList1(Compute from)" '( 1))
(cx-gui-do cx-activate-item "Solution Initialization*Table1*DropDownList1(Compute from)")
(cx-gui-do cx-activate-item "Solution Initialization*Table1*Frame9*PushButton1(Initialize)")
(cx-gui-do cx-set-list-tree-selections "NavigationPane*Frame2*Table1*List_Tree2" (list "Solution|Run Calculation"))
(cx-gui-do cx-set-list-tree-selections "NavigationPane*Frame2*Table1*List_Tree2" (list "Solution|Run Calculation"))
(cx-gui-do cx-activate-item "NavigationPane*Frame2*Table1*List_Tree2")
(cx-gui-do cx-set-list-tree-selections "NavigationPane*Frame2*Table1*List_Tree2" (list "Solution|Run Calculation"))
(cx-gui-do cx-activate-item "Run Calculation*Table1*Table6(Solution Advancement)*Table1*PushButton3(Calculate)")


  iter  continuity  x-velocity  y-velocity     time/iter
     1  0.0000e+00  3.8617e-02  0.0000e+00  0:00:17  999
     2  1.0000e+00  2.0828e-02  1.9509e-04  0:00:44  998
     3  1.0000e+00  1.1311e-02  2.0175e-04  0:00:42  997
     4  8.2307e-01  6.1582e-03  1.4261e-04  0:00:39  996
     5  5.6709e-01  3.3954e-03  9.4059e-05  0:00:35  995
     6  4.2750e-01  1.8868e-03  6.5915e-05  0:00:32  994
     7  3.3752e-01  1.0536e-03  4.5809e-05  0:00:31  993
     8  2.5607e-01  5.9043e-04  3.0570e-05  0:00:29  992
     9  1.8279e-01  3.3223e-04  1.9060e-05  0:00:27  991
    10  1.2530e-01  1.8824e-04  1.1882e-05  0:00:25  990
    11  8.5193e-02  1.0840e-04  7.6698e-06  0:00:24  989

  iter  continuity  x-velocity  y-velocity     time/iter
    12  5.6624e-02  6.2760e-05  4.8511e-06  0:00:24  988
    13  3.7524e-02  3.6654e-05  3.0604e-06  0:00:23  987
    14  2.4791e-02  2.1586e-05  1.9343e-06  0:00:22  986
    15  1.6405e-02  1.2784e-05  1.2349e-06  0:00:23  985
    16  1.0899e-02  7.6111e-06  7.9067e-07  0:00:22  984
    17  7.2337e-03  4.5494e-06  5.0665e-07  0:00:22  983
    18  4.7986e-03  2.7282e-06  3.2661e-07  0:00:21  982
    19  3.1805e-03  1.6413e-06  2.1080e-07  0:00:21  981
    20  2.1196e-03  9.9157e-07  1.3733e-07  0:00:21  980
    21  1.4103e-03  6.0160e-07  8.9940e-08  0:00:21  979
    22  9.3649e-04  3.6624e-07  5.8625e-08  0:00:21  978

  iter  continuity  x-velocity  y-velocity     time/iter
    23  6.2358e-04  2.2371e-07  3.8168e-08  0:00:21  977
    24  4.1489e-04  1.3702e-07  2.5024e-08  0:00:21  976
    25  2.7524e-04  8.4160e-08  1.6401e-08  0:00:20  975
    26  1.8203e-04  5.1857e-08  1.0761e-08  0:00:21  974
    27  1.2106e-04  3.2030e-08  7.0448e-09  0:00:21  973
    28  8.0477e-05  1.9827e-08  4.6070e-09  0:00:21  972
    29  5.3601e-05  1.2299e-08  3.0091e-09  0:00:21  971
    30  3.5801e-05  7.8487e-09  2.0483e-09  0:00:21  970
    31  2.3967e-05  5.0258e-09  1.3833e-09  0:00:21  969
    32  1.6049e-05  3.2289e-09  9.2709e-10  0:00:20  968
    33  1.0750e-05  2.0820e-09  6.1886e-10  0:00:20  967

  iter  continuity  x-velocity  y-velocity     time/iter
    34  7.1993e-06  1.3467e-09  4.1303e-10  0:00:21  966
    35  4.8268e-06  8.7346e-10  2.7543e-10  0:00:21  965
    36  3.2344e-06  5.6823e-10  1.8354e-10  0:00:21  964
    37  2.1688e-06  3.7122e-10  1.2246e-10  0:00:21  963
    38  1.4554e-06  2.4415e-10  8.1793e-11  0:00:21  962
    39  9.7747e-07  1.6153e-10  5.4676e-11  0:00:20  961
    40  6.5680e-07  1.0740e-10  3.6613e-11  0:00:20  960
    41  4.4165e-07  7.1861e-11  2.4560e-11  0:00:22  959
    42  2.9716e-07  4.8409e-11  1.6503e-11  0:00:22  958
    43  1.9998e-07  3.2884e-11  1.1108e-11  0:00:21  957
    44  1.3467e-07  2.2495e-11  7.4885e-12  0:00:22  956

  iter  continuity  x-velocity  y-velocity     time/iter
    45  9.0827e-08  1.5468e-11  5.0608e-12  0:00:21  955
    46  6.1290e-08  1.0690e-11  3.4304e-12  0:00:21  954
    47  4.1395e-08  7.4189e-12  2.3309e-12  0:00:21  953
    48  2.7986e-08  5.1616e-12  1.5873e-12  0:00:20  952
    49  1.8943e-08  3.5997e-12  1.0832e-12  0:00:19  951
    50  1.2801e-08  2.4503e-12  7.1349e-13  0:00:19  950
    51  8.6523e-09  1.6671e-12  4.7452e-13  0:00:21  949
    52  5.8531e-09  1.1350e-12  3.1770e-13  0:00:20  948
    53  3.9672e-09  7.7309e-13  2.1367e-13  0:00:20  947
    54  2.6895e-09  5.2701e-13  1.4423e-13  0:00:20  946
    55  1.8251e-09  3.5969e-13  9.7623e-14  0:00:20  945

  iter  continuity  x-velocity  y-velocity     time/iter
    56  1.2392e-09  2.4573e-13  6.6217e-14  0:00:20  944
    57  8.4158e-10  1.6810e-13  4.5037e-14  0:00:20  943
!   57 solution is converged

Calculation complete.
(cx-gui-do cx-activate-item "Mesh Display*PanelButtons*PushButton2(Cancel)")
(cx-gui-do cx-activate-item "Information*OK")
(cx-gui-do cx-set-list-tree-selections "NavigationPane*Frame2*Table1*List_Tree2" (list "Results|Plots|XY Plot|xy-plot-2"))
(cx-gui-do cx-set-list-tree-selections "NavigationPane*Frame2*Table1*List_Tree2" (list "Results|Plots|XY Plot|xy-plot-2"))
(cx-gui-do cx-activate-item "NavigationPane*Frame2*Table1*List_Tree2")
(cx-gui-do cx-set-list-tree-selections "NavigationPane*Frame2*Table1*List_Tree2" (list "Results|Plots|XY Plot|xy-plot-2"))
(cx-gui-do cx-activate-item "Solution XY Plot*PanelButtons*PushButton1(OK)")
(cx-gui-do cx-set-toggle-button2 "Solution XY Plot*Table1*Table1*ButtonBox1(Options)*CheckButton4(Write to File)" #t)
(cx-gui-do cx-activate-item "Solution XY Plot*Table1*Table1*ButtonBox1(Options)*CheckButton4(Write to File)")
(cx-gui-do cx-activate-item "Solution XY Plot*PanelButtons*PushButton1(OK)")
(cx-gui-do cx-set-file-dialog-entries "Select File" '( "C:/Users/y.chavali.176/OneDrive - Cranfield University/fm_assignment/2m_geometry_200x20/outlet.txt") "All Files (*)")
(cx-gui-do cx-activate-item "Question*OK")
(cx-gui-do cx-activate-item "Solution XY Plot*PanelButtons*PushButton2(Cancel)")
(cx-gui-do cx-set-list-tree-selections "NavigationPane*Frame2*Table1*List_Tree2" (list "Results|Plots|XY Plot|xy-plot-1"))
(cx-gui-do cx-set-list-tree-selections "NavigationPane*Frame2*Table1*List_Tree2" (list "Results|Plots|XY Plot|xy-plot-1"))
(cx-gui-do cx-activate-item "NavigationPane*Frame2*Table1*List_Tree2")
(cx-gui-do cx-set-list-tree-selections "NavigationPane*Frame2*Table1*List_Tree2" (list "Results|Plots|XY Plot|xy-plot-1"))
(cx-gui-do cx-set-toggle-button2 "Solution XY Plot*Table1*Table1*ButtonBox1(Options)*CheckButton4(Write to File)" #t)
(cx-gui-do cx-activate-item "Solution XY Plot*Table1*Table1*ButtonBox1(Options)*CheckButton4(Write to File)")
(cx-gui-do cx-activate-item "Solution XY Plot*PanelButtons*PushButton1(OK)")
(cx-gui-do cx-set-file-dialog-entries "Select File" '( "1.8.txt") "All Files (*)")
(cx-gui-do cx-activate-item "Question*OK")
(cx-gui-do cx-activate-item "Solution XY Plot*PanelButtons*PushButton2(Cancel)")
(cx-gui-do cx-activate-item "MenuBar*ReadSubMenu*Mesh...")
(cx-gui-do cx-activate-item "Read Mesh Options*PanelButtons*PushButton1(OK)")
(cx-gui-do cx-set-file-dialog-entries "Select File" '( "C:/Users/y.chavali.176/OneDrive - Cranfield University/fm_assignment/2m_geometry_400x40/401x41.msh") "All Files (*)")

Writing Settings file "C:\Users\YCHAVA~1.176\AppData\Local\Temp\7"...
	writing rp variables ... Done.
	writing domain variables ... Done.
	writing fluid (type fluid) (mixture) ... Done.
	writing int_fluid (type interior) (mixture) ... Done.
	writing inlet (type velocity-inlet) (mixture) ... Done.
	writing outlet (type pressure-outlet) (mixture) ... Done.
	writing topwall (type wall) (mixture) ... Done.
	writing bottomwall (type wall) (mixture) ... Done.
	writing zones map name-id ... Done.
Note: Rank = 0: Process affinity not being set (6).
Reading "C:/Users/y.chavali.176/OneDrive - Cranfield University/fm_assignment/2m_geometry_400x40/401x41.msh"...
Buffering for file scan...


       Clearing partially read grid.
   16441 nodes.
   16000 quadrilateral cells, zone  8.
   31560 2D interior faces, zone  9.
      40 2D velocity-inlet faces, zone 10.
      40 2D pressure-outlet faces, zone 11.
     400 2D wall faces, zone 12.
     400 2D wall faces, zone 13.

Building...
     mesh
     materials,
     interface,
     domains,
     zones,
	bottomwall
	topwall
	outlet
	inlet
	int_fluid
	fluid
     parallel,
Done.
 Setting zone id of fluid to 8.
 Setting zone id of int_fluid to 9.
 Setting zone id of inlet to 10.
 Setting zone id of outlet to 11.
 Setting zone id of topwall to 12.
 Setting zone id of bottomwall to 13.
Done.

Setting fluid (mixture) ... Done.
Setting int_fluid (mixture) ... Done.
Setting inlet (mixture) ... Done.
Setting outlet (mixture) ... Done.
Setting topwall (mixture) ... Done.
Setting bottomwall (mixture) ... Done.

(cx-gui-do cx-activate-item "Ribbon*Frame1*Frame2(Domain)*Table1*Table3(Mesh)*PushButton1(Display)")
(cx-gui-do cx-activate-item "Mesh Display*PanelButtons*PushButton1(OK)")
(cx-gui-do cx-activate-item "Mesh Display*PanelButtons*PushButton2(Cancel)")
(cx-use-window-id 51)
(dolly-camera 0.00758979 0.0676314 0)
(cx-use-window-id 51)
(dolly-camera -0.00843313 0.120046 0)
(cx-gui-do cx-set-list-tree-selections "NavigationPane*Frame2*Table1*List_Tree2" (list "Solution|Initialization"))
(cx-gui-do cx-set-list-tree-selections "NavigationPane*Frame2*Table1*List_Tree2" (list "Solution|Initialization"))
(cx-gui-do cx-activate-item "NavigationPane*Frame2*Table1*List_Tree2")
(cx-gui-do cx-set-list-tree-selections "NavigationPane*Frame2*Table1*List_Tree2" (list "Solution|Initialization"))
(cx-gui-do cx-set-list-selections "Solution Initialization*Table1*DropDownList1(Compute from)" '( 1))
(cx-gui-do cx-activate-item "Solution Initialization*Table1*DropDownList1(Compute from)")
(cx-gui-do cx-activate-item "Solution Initialization*Table1*Frame9*PushButton1(Initialize)")
(cx-gui-do cx-set-list-selections "Solution Initialization*Table1*DropDownList1(Compute from)" '( 1))
(cx-gui-do cx-activate-item "Solution Initialization*Table1*DropDownList1(Compute from)")
(cx-gui-do cx-activate-item "Solution Initialization*Table1*Frame9*PushButton1(Initialize)")
(cx-gui-do cx-activate-item "Question*OK")
(cx-gui-do cx-set-list-tree-selections "NavigationPane*Frame2*Table1*List_Tree2" (list "Solution|Run Calculation"))
(cx-gui-do cx-set-list-tree-selections "NavigationPane*Frame2*Table1*List_Tree2" (list "Solution|Run Calculation"))
(cx-gui-do cx-activate-item "NavigationPane*Frame2*Table1*List_Tree2")
(cx-gui-do cx-set-list-tree-selections "NavigationPane*Frame2*Table1*List_Tree2" (list "Solution|Run Calculation"))
(cx-gui-do cx-activate-item "Run Calculation*Table1*Table6(Solution Advancement)*Table1*PushButton3(Calculate)")


  iter  continuity  x-velocity  y-velocity     time/iter
     1  0.0000e+00  2.1853e-02  0.0000e+00  0:00:42  999
     2  1.0000e+00  1.1588e-02  7.1170e-05  0:01:10  998

 Reversed flow on 2 faces (5.0% area) of pressure-outlet 11.
     3  1.0000e+00  6.0855e-03  6.9284e-05  0:01:05  997

 Reversed flow on 4 faces (10.0% area) of pressure-outlet 11.
     4  8.9412e-01  3.1811e-03  5.2787e-05  0:01:00  996

 Reversed flow on 4 faces (10.0% area) of pressure-outlet 11.
     5  5.9166e-01  1.6909e-03  3.4240e-05  0:00:56  995
     6  4.2177e-01  9.3368e-04  2.3367e-05  0:00:53  994
     7  4.0385e-01  5.1875e-04  1.9358e-05  0:00:51  993
     8  3.5846e-01  2.8198e-04  1.4199e-05  0:00:48  992
     9  2.6619e-01  1.5067e-04  9.5081e-06  0:00:46  991
    10  1.6117e-01  8.7109e-05  5.7422e-06  0:00:44  990
    11  8.1171e-02  5.1805e-05  3.2946e-06  0:00:43  989

  iter  continuity  x-velocity  y-velocity     time/iter
    12  5.9032e-02  3.0180e-05  2.1282e-06  0:00:44  988
    13  4.5982e-02  1.6348e-05  1.4572e-06  0:00:43  987
    14  2.8695e-02  1.0218e-05  9.0331e-07  0:00:43  986
    15  1.4689e-02  6.7827e-06  6.2806e-07  0:00:44  985
    16  1.2669e-02  4.2958e-06  4.2471e-07  0:00:44  984
    17  1.0962e-02  2.3567e-06  3.1989e-07  0:00:44  983
    18  7.5000e-03  1.3696e-06  2.0110e-07  0:00:43  982
    19  4.0044e-03  9.9987e-07  1.1608e-07  0:00:43  981
    20  2.3476e-03  6.8825e-07  9.4929e-08  0:00:43  980
    21  2.0865e-03  3.9222e-07  6.8357e-08  0:00:43  979
    22  1.5168e-03  2.1651e-07  4.6417e-08  0:00:41  978

  iter  continuity  x-velocity  y-velocity     time/iter
    23  8.4499e-04  1.7109e-07  3.7458e-08  0:00:41  977
    24  5.0852e-04  1.2693e-07  2.1003e-08  0:01:04  976
    25  4.8910e-04  7.4042e-08  1.3812e-08  0:00:59  975
    26  3.7031e-04  3.7092e-08  9.5302e-09  0:00:54  974
    27  2.2010e-04  3.0358e-08  5.3647e-09  0:00:51  973
    28  1.1736e-04  2.4219e-08  2.9125e-09  0:00:49  972
    29  1.0157e-04  1.5123e-08  2.7729e-09  0:00:46  971
    30  8.0294e-05  7.3402e-09  2.1409e-09  0:00:43  970
    31  5.0424e-05  5.9604e-09  1.2706e-09  0:00:42  969
    32  2.7690e-05  4.9568e-09  6.1474e-10  0:00:41  968
    33  2.3250e-05  3.1879e-09  6.2148e-10  0:00:40  967

  iter  continuity  x-velocity  y-velocity     time/iter
    34  1.8528e-05  1.5207e-09  5.2862e-10  0:00:39  966
    35  1.1804e-05  1.1480e-09  3.3230e-10  0:00:39  965
    36  6.7739e-06  1.0223e-09  1.6343e-10  0:00:38  964
    37  5.0986e-06  6.9273e-10  1.2267e-10  0:00:37  963
    38  4.2027e-06  3.3533e-10  1.0601e-10  0:00:37  962
    39  2.8027e-06  2.3548e-10  6.8037e-11  0:00:36  961
    40  1.5950e-06  2.1317e-10  3.3335e-11  0:00:36  960
    41  1.1243e-06  1.4990e-10  2.7135e-11  0:00:36  959
    42  9.2906e-07  7.4094e-11  2.4707e-11  0:00:36  958
    43  6.4092e-07  4.7497e-11  1.6541e-11  0:00:36  957
    44  3.8195e-07  4.5093e-11  8.2630e-12  0:00:35  956

  iter  continuity  x-velocity  y-velocity     time/iter
    45  2.6312e-07  3.3125e-11  5.3702e-12  0:00:34  955
    46  2.1892e-07  1.7004e-11  4.9326e-12  0:00:34  954
    47  1.5485e-07  1.0115e-11  3.4499e-12  0:00:34  953
    48  9.2117e-08  9.7009e-12  1.8448e-12  0:00:34  952
    49  6.1438e-08  7.3654e-12  1.3240e-12  0:00:35  951
    50  4.9704e-08  3.9655e-12  1.2136e-12  0:00:35  950
    51  3.6141e-08  2.1775e-12  8.7427e-13  0:00:35  949
    52  2.2794e-08  2.1265e-12  4.7851e-13  0:01:47  948
    53  1.4766e-08  1.6670e-12  2.7034e-13  0:01:34  947
    54  1.1743e-08  9.3220e-13  2.4281e-13  0:01:22  946
    55  8.6724e-09  5.0879e-13  1.8242e-13  0:01:12  945

  iter  continuity  x-velocity  y-velocity     time/iter
    56  5.4738e-09  4.7793e-13  1.0903e-13  0:01:05  944
    57  3.6505e-09  3.8137e-13  7.3665e-14  0:00:59  943
    58  2.7912e-09  2.2488e-13  6.3997e-14  0:00:54  942
    59  2.0811e-09  1.2111e-13  4.8055e-14  0:00:50  941
    60  1.3761e-09  1.0932e-13  2.9446e-14  0:00:47  940
    61  8.9574e-10  8.9227e-14  1.5890e-14  0:00:44  939
!   61 solution is converged

Calculation complete.
(cx-gui-do cx-activate-item "Information*OK")
(cx-gui-do cx-set-list-tree-selections "NavigationPane*Frame2*Table1*List_Tree2" (list "Results|Plots|XY Plot|xy-plot-2"))
(cx-gui-do cx-set-list-tree-selections "NavigationPane*Frame2*Table1*List_Tree2" (list "Results|Plots|XY Plot|xy-plot-2"))
(cx-gui-do cx-activate-item "NavigationPane*Frame2*Table1*List_Tree2")
(cx-gui-do cx-set-list-tree-selections "NavigationPane*Frame2*Table1*List_Tree2" (list "Results|Plots|XY Plot|xy-plot-2"))
(cx-gui-do cx-set-toggle-button2 "Solution XY Plot*Table1*Table1*ButtonBox1(Options)*CheckButton5(Order Points)" #t)
(cx-gui-do cx-activate-item "Solution XY Plot*Table1*Table1*ButtonBox1(Options)*CheckButton5(Order Points)")
(cx-gui-do cx-set-toggle-button2 "Solution XY Plot*Table1*Table1*ButtonBox1(Options)*CheckButton5(Order Points)" #f)
(cx-gui-do cx-activate-item "Solution XY Plot*Table1*Table1*ButtonBox1(Options)*CheckButton5(Order Points)")
(cx-gui-do cx-activate-item "Solution XY Plot*PanelButtons*PushButton1(OK)")
(cx-gui-do cx-set-toggle-button2 "Solution XY Plot*Table1*Table1*ButtonBox1(Options)*CheckButton4(Write to File)" #t)
(cx-gui-do cx-activate-item "Solution XY Plot*Table1*Table1*ButtonBox1(Options)*CheckButton4(Write to File)")
(cx-gui-do cx-activate-item "Solution XY Plot*PanelButtons*PushButton1(OK)")
(cx-gui-do cx-set-file-dialog-entries "Select File" '( "C:/Users/y.chavali.176/OneDrive - Cranfield University/fm_assignment/2m_geometry_400x40/outlet.txt") "All Files (*)")
(cx-gui-do cx-activate-item "Question*OK")
(cx-gui-do cx-activate-item "Solution XY Plot*PanelButtons*PushButton2(Cancel)")
(cx-gui-do cx-set-list-tree-selections "NavigationPane*Frame2*Table1*List_Tree2" (list "Results|Plots|XY Plot|xy-plot-1"))
(cx-gui-do cx-set-list-tree-selections "NavigationPane*Frame2*Table1*List_Tree2" (list "Results|Plots|XY Plot|xy-plot-1"))
(cx-gui-do cx-activate-item "NavigationPane*Frame2*Table1*List_Tree2")
(cx-gui-do cx-set-list-tree-selections "NavigationPane*Frame2*Table1*List_Tree2" (list "Results|Plots|XY Plot|xy-plot-1"))
(cx-gui-do cx-set-toggle-button2 "Solution XY Plot*Table1*Table1*ButtonBox1(Options)*CheckButton4(Write to File)" #t)
(cx-gui-do cx-activate-item "Solution XY Plot*Table1*Table1*ButtonBox1(Options)*CheckButton4(Write to File)")
(cx-gui-do cx-activate-item "Solution XY Plot*PanelButtons*PushButton1(OK)")
(cx-gui-do cx-set-file-dialog-entries "Select File" '( "1.8.txt") "All Files (*)")
(cx-gui-do cx-activate-item "Question*OK")
(cx-gui-do cx-activate-item "Solution XY Plot*PanelButtons*PushButton2(Cancel)")
(cx-gui-do cx-set-list-tree-selections "NavigationPane*Frame2*Table1*List_Tree2" (list "Results|Graphics|Contours|contour-1"))
(cx-gui-do cx-set-list-tree-selections "NavigationPane*Frame2*Table1*List_Tree2" (list "Results|Graphics|Contours|contour-1"))
(cx-gui-do cx-activate-item "NavigationPane*Frame2*Table1*List_Tree2")
(cx-gui-do cx-set-list-tree-selections "NavigationPane*Frame2*Table1*List_Tree2" (list "Results|Graphics|Contours|contour-1"))
(cx-gui-do cx-activate-item "Contours*PanelButtons*PushButton1(OK)")
(cx-use-window-id 51)
(dolly-camera 0.362441 -0.140536 0)
(cx-use-window-id 51)
(dolly-camera 0.151408 -0.104506 0)
(cx-gui-do cx-activate-item "Contours*PanelButtons*PushButton2(Cancel)")
(cx-gui-do cx-activate-item "MenuBar*ReadSubMenu*Mesh...")
(cx-gui-do cx-activate-item "Read Mesh Options*PanelButtons*PushButton1(OK)")
(cx-gui-do cx-set-file-dialog-entries "Select File" '( "finer.msh") "All Mesh Files (*.msh* *.MSH* )")

Writing Settings file "C:\Users\YCHAVA~1.176\AppData\Local\Temp\8"...
	writing rp variables ... Done.
	writing domain variables ... Done.
	writing fluid (type fluid) (mixture) ... Done.
	writing int_fluid (type interior) (mixture) ... Done.
	writing inlet (type velocity-inlet) (mixture) ... Done.
	writing outlet (type pressure-outlet) (mixture) ... Done.
	writing topwall (type wall) (mixture) ... Done.
	writing bottomwall (type wall) (mixture) ... Done.
	writing zones map name-id ... Done.
Note: Rank = 0: Process affinity not being set (6).
Reading "C:/Users/y.chavali.176/OneDrive - Cranfield University/fm_assignment/2m_geometry_400x40/finer.msh"...
Buffering for file scan...


       Clearing partially read grid.
  101101 nodes.
  100000 quadrilateral cells, zone  8.
  198900 2D interior faces, zone  9.
     100 2D velocity-inlet faces, zone 10.
     100 2D pressure-outlet faces, zone 11.
    1000 2D wall faces, zone 12.
    1000 2D wall faces, zone 13.

Building...
     mesh
     materials,
     interface,
     domains,
     zones,
	bottomwall
	topwall
	outlet
	inlet
	int_fluid
	fluid
     parallel,
Done.
 Setting zone id of fluid to 8.
 Setting zone id of int_fluid to 9.
 Setting zone id of inlet to 10.
 Setting zone id of outlet to 11.
 Setting zone id of topwall to 12.
 Setting zone id of bottomwall to 13.
Done.

Setting fluid (mixture) ... Done.
Setting int_fluid (mixture) ... Done.
Setting inlet (mixture) ... Done.
Setting outlet (mixture) ... Done.
Setting topwall (mixture) ... Done.
Setting bottomwall (mixture) ... Done.

(cx-gui-do cx-set-list-tree-selections "NavigationPane*Frame2*Table1*List_Tree2" (list "Solution|Initialization"))
(cx-gui-do cx-set-list-tree-selections "NavigationPane*Frame2*Table1*List_Tree2" (list "Solution|Initialization"))
(cx-gui-do cx-activate-item "NavigationPane*Frame2*Table1*List_Tree2")
(cx-gui-do cx-set-list-tree-selections "NavigationPane*Frame2*Table1*List_Tree2" (list "Solution|Initialization"))
(cx-gui-do cx-set-list-selections "Solution Initialization*Table1*DropDownList1(Compute from)" '( 1))
(cx-gui-do cx-activate-item "Solution Initialization*Table1*DropDownList1(Compute from)")
(cx-gui-do cx-activate-item "Solution Initialization*Table1*Frame9*PushButton1(Initialize)")
(cx-gui-do cx-set-list-selections "Solution Initialization*Table1*DropDownList1(Compute from)" '( 1))
(cx-gui-do cx-activate-item "Solution Initialization*Table1*DropDownList1(Compute from)")
(cx-gui-do cx-activate-item "Solution Initialization*Table1*Frame9*PushButton1(Initialize)")
(cx-gui-do cx-activate-item "Question*OK")
(cx-gui-do cx-activate-item "Ribbon*Frame1*Frame2(Domain)*Table1*Table3(Mesh)*PushButton1(Display)")
(cx-gui-do cx-activate-item "Mesh Display*PanelButtons*PushButton1(OK)")
(cx-gui-do cx-activate-item "Mesh Display*PanelButtons*PushButton2(Cancel)")
(cx-use-window-id 51)
(dolly-camera -0.0160578 -0.0981169 0)
(cx-gui-do cx-set-list-tree-selections "NavigationPane*Frame2*Table1*List_Tree2" (list "Solution|Run Calculation"))
(cx-gui-do cx-set-list-tree-selections "NavigationPane*Frame2*Table1*List_Tree2" (list "Solution|Run Calculation"))
(cx-gui-do cx-activate-item "NavigationPane*Frame2*Table1*List_Tree2")
(cx-gui-do cx-set-list-tree-selections "NavigationPane*Frame2*Table1*List_Tree2" (list "Solution|Run Calculation"))
(cx-gui-do cx-activate-item "Run Calculation*Table1*Table6(Solution Advancement)*Table1*PushButton3(Calculate)")


  iter  continuity  x-velocity  y-velocity     time/iter
     1  0.0000e+00  9.4626e-03  0.0000e+00  0:05:19  999
     2  1.0000e+00  4.8732e-03  1.9045e-05  0:05:40  998

 Reversed flow on 18 faces (18.0% area) of pressure-outlet 11.
     3  1.0000e+00  2.5429e-03  2.4673e-05  0:05:22  997

 Reversed flow on 31 faces (31.0% area) of pressure-outlet 11.
     4  9.1482e-01  1.3372e-03  3.4282e-05  0:05:09  996

 Reversed flow on 23 faces (23.0% area) of pressure-outlet 11.
     5  8.0511e-01  7.1171e-04  3.1791e-05  0:04:52  995

 Reversed flow on 17 faces (17.0% area) of pressure-outlet 11.
     6  7.1544e-01  3.9377e-04  2.2893e-05  0:04:52  994

 Reversed flow on 9 faces (9.0% area) of pressure-outlet 11.
     7  6.4648e-01  2.4238e-04  1.3844e-05  0:04:49  993
     8  7.4977e-01  1.7169e-04  9.4892e-06  0:04:43  992
     9  8.3635e-01  1.3682e-04  8.5579e-06  0:04:38  991

 Reversed flow on 18 faces (18.0% area) of pressure-outlet 11.
    10  1.0799e+00  1.9794e-04  2.6419e-05  0:04:28  990

 Reversed flow on 27 faces (27.0% area) of pressure-outlet 11.
    11  1.1125e+00  1.1626e-04  4.5040e-05  0:04:12  989

 Reversed flow on 17 faces (17.0% area) of pressure-outlet 11.

  iter  continuity  x-velocity  y-velocity     time/iter
    12  8.3302e-01  1.1103e-04  4.0648e-05  0:04:13  988

 Reversed flow on 12 faces (12.0% area) of pressure-outlet 11.
    13  8.2590e-01  1.2691e-04  3.0195e-05  0:04:14  987

 Reversed flow on 7 faces (7.0% area) of pressure-outlet 11.
    14  1.2282e+00  1.2079e-04  2.4768e-05  0:04:14  986

 Reversed flow on 17 faces (17.0% area) of pressure-outlet 11.
    15  1.4287e+00  2.0763e-04  3.1689e-05  0:04:08  985

 Reversed flow on 36 faces (36.0% area) of pressure-outlet 11.
    16  1.3365e+00  1.6512e-04  4.6291e-05  0:03:56  984

 Reversed flow on 32 faces (32.0% area) of pressure-outlet 11.
    17  1.2203e+00  1.1539e-04  4.2394e-05  0:03:53  983

 Reversed flow on 13 faces (13.0% area) of pressure-outlet 11.
    18  1.2471e+00  1.1763e-04  3.1960e-05  0:04:03  982

 Reversed flow on 11 faces (11.0% area) of pressure-outlet 11.
    19  1.0672e+00  1.2903e-04  2.6551e-05  0:04:05  981

 Reversed flow on 5 faces (5.0% area) of pressure-outlet 11.
    20  1.3098e+00  9.5920e-05  2.1523e-05  0:04:05  980

 Reversed flow on 8 faces (8.0% area) of pressure-outlet 11.
    21  1.1864e+00  1.2710e-04  1.7955e-05  0:04:13  979

 Reversed flow on 25 faces (25.0% area) of pressure-outlet 11.
    22  1.0829e+00  1.7221e-04  5.5072e-05  0:04:15  978

 Reversed flow on 24 faces (24.0% area) of pressure-outlet 11.

  iter  continuity  x-velocity  y-velocity     time/iter
    23  1.1383e+00  1.2734e-04  6.6153e-05  0:04:09  977

 Reversed flow on 16 faces (16.0% area) of pressure-outlet 11.
    24  1.1053e+00  1.2790e-04  6.0416e-05  0:04:08  976

[...]
  3280  2.1968e-09  4.2870e-10  2.1864e-11  0:01:37  720
  3281  2.1764e-09  4.2711e-10  2.1813e-11  0:01:38  719
  3282  2.1391e-09  4.2552e-10  2.1762e-11  0:01:39  718
  3283  2.0872e-09  4.2394e-10  2.1711e-11  0:01:42  717
  3284  2.0230e-09  4.2236e-10  2.1660e-11  0:01:41  716
  3285  1.9499e-09  4.2078e-10  2.1609e-11  0:02:32  715

  iter  continuity  x-velocity  y-velocity     time/iter
  3286  1.8700e-09  4.1921e-10  2.1559e-11  0:02:21  714
  3287  1.7855e-09  4.1763e-10  2.1508e-11  0:02:13  713
  3288  1.6986e-09  4.1606e-10  2.1457e-11  0:02:05  712
  3289  1.6118e-09  4.1450e-10  2.1407e-11  0:01:59  711
  3290  1.5195e-09  4.1292e-10  2.1353e-11  0:01:55  710
  3291  1.4542e-09  4.1135e-10  2.1305e-11  0:01:51  709
  3292  1.4033e-09  4.0978e-10  2.1257e-11  0:01:47  708
  3293  1.3659e-09  4.0822e-10  2.1207e-11  0:01:45  707
  3294  1.3397e-09  4.0666e-10  2.1157e-11  0:01:44  706
  3295  1.3240e-09  4.0511e-10  2.1107e-11  0:01:42  705
  3296  1.3187e-09  4.0357e-10  2.1057e-11  0:01:40  704

  iter  continuity  x-velocity  y-velocity     time/iter
  3297  1.3239e-09  4.0203e-10  2.1008e-11  0:01:39  703
  3298  1.3393e-09  4.0050e-10  2.0958e-11  0:01:39  702
  3299  1.3637e-09  3.9898e-10  2.0909e-11  0:01:37  701
  3300  1.3969e-09  3.9746e-10  2.0860e-11  0:01:37  700
  3301  1.4374e-09  3.9596e-10  2.0812e-11  0:01:37  699
  3302  1.4837e-09  3.9446e-10  2.0763e-11  0:01:36  698
  3303  1.5346e-09  3.9298e-10  2.0715e-11  0:01:35  697
  3304  1.6058e-09  3.9153e-10  2.0666e-11  0:01:35  696
  3305  1.6338e-09  3.9008e-10  2.0617e-11  0:01:35  695
  3306  1.6518e-09  3.8864e-10  2.0570e-11  0:01:34  694
  3307  1.6524e-09  3.8721e-10  2.0523e-11  0:01:33  693

  iter  continuity  x-velocity  y-velocity     time/iter
  3308  1.6345e-09  3.8578e-10  2.0476e-11  0:01:34  692
  3309  1.6007e-09  3.8435e-10  2.0429e-11  0:01:33  691
  3310  1.5555e-09  3.8293e-10  2.0382e-11  0:01:33  690
  3311  1.5031e-09  3.8151e-10  2.0335e-11  0:01:33  689
  3312  1.4471e-09  3.8010e-10  2.0288e-11  0:01:32  688
  3313  1.3899e-09  3.7869e-10  2.0241e-11  0:01:32  687
  3314  1.3328e-09  3.7728e-10  2.0195e-11  0:01:33  686
  3315  1.2770e-09  3.7588e-10  2.0148e-11  0:01:33  685
  3316  1.2238e-09  3.7448e-10  2.0101e-11  0:01:32  684
  3317  1.1738e-09  3.7308e-10  2.0055e-11  0:01:35  683
  3318  1.1279e-09  3.7169e-10  2.0008e-11  0:01:34  682

  iter  continuity  x-velocity  y-velocity     time/iter
  3319  1.0902e-09  3.7029e-10  1.9966e-11  0:01:33  681
  3320  1.0670e-09  3.6890e-10  1.9917e-11  0:01:32  680
  3321  1.0522e-09  3.6751e-10  1.9869e-11  0:01:32  679
  3322  1.0467e-09  3.6613e-10  1.9823e-11  0:01:31  678
  3323  1.0512e-09  3.6475e-10  1.9777e-11  0:01:31  677
  3324  1.0655e-09  3.6338e-10  1.9732e-11  0:01:31  676
  3325  1.0887e-09  3.6202e-10  1.9686e-11  0:01:31  675
  3326  1.1197e-09  3.6067e-10  1.9641e-11  0:01:30  674
  3327  1.1569e-09  3.5933e-10  1.9596e-11  0:01:30  673
  3328  1.1986e-09  3.5799e-10  1.9551e-11  0:01:30  672
  3329  1.2430e-09  3.5666e-10  1.9506e-11  0:01:30  671

  iter  continuity  x-velocity  y-velocity     time/iter
  3330  1.2882e-09  3.5534e-10  1.9461e-11  0:01:29  670
  3331  1.3335e-09  3.5403e-10  1.9417e-11  0:01:30  669
  3332  1.3771e-09  3.5272e-10  1.9372e-11  0:01:30  668
  3333  1.4117e-09  3.5142e-10  1.9327e-11  0:01:36  667
  3334  1.4447e-09  3.5013e-10  1.9284e-11  0:01:35  666
  3335  1.4762e-09  3.4885e-10  1.9241e-11  0:01:33  665
  3336  1.5051e-09  3.4757e-10  1.9197e-11  0:01:32  664
  3337  1.5322e-09  3.4630e-10  1.9153e-11  0:01:31  663
  3338  1.5463e-09  3.4503e-10  1.9109e-11  0:01:31  662
  3339  1.5510e-09  3.4378e-10  1.9065e-11  0:01:31  661
  3340  1.5467e-09  3.4253e-10  1.9022e-11  0:01:30  660

  iter  continuity  x-velocity  y-velocity     time/iter
  3341  1.5341e-09  3.4128e-10  1.8978e-11  0:01:30  659
  3342  1.5140e-09  3.4004e-10  1.8935e-11  0:01:29  658
  3343  1.4873e-09  3.3880e-10  1.8893e-11  0:01:30  657
  3344  1.4549e-09  3.3756e-10  1.8850e-11  0:01:30  656
  3345  1.4176e-09  3.3633e-10  1.8807e-11  0:01:29  655
  3346  1.3771e-09  3.3510e-10  1.8765e-11  0:01:28  654
  3347  1.3248e-09  3.3387e-10  1.8721e-11  0:01:28  653
  3348  1.2814e-09  3.3265e-10  1.8679e-11  0:01:28  652
  3349  1.2416e-09  3.3143e-10  1.8638e-11  0:01:27  651
  3350  1.2055e-09  3.3021e-10  1.8596e-11  0:01:27  650
  3351  1.1721e-09  3.2899e-10  1.8553e-11  0:01:27  649

  iter  continuity  x-velocity  y-velocity     time/iter
  3352  1.1408e-09  3.2778e-10  1.8511e-11  0:01:28  648
  3353  1.1115e-09  3.2658e-10  1.8469e-11  0:01:28  647
  3354  1.0847e-09  3.2537e-10  1.8427e-11  0:01:28  646
  3355  1.0612e-09  3.2417e-10  1.8385e-11  0:01:27  645
  3356  1.0417e-09  3.2298e-10  1.8344e-11  0:01:27  644
  3357  1.0267e-09  3.2179e-10  1.8302e-11  0:01:27  643
  3358  1.0168e-09  3.2061e-10  1.8261e-11  0:01:27  642
  3359  1.0121e-09  3.1942e-10  1.8219e-11  0:01:26  641
  3360  1.0123e-09  3.1825e-10  1.8178e-11  0:01:28  640
  3361  1.0171e-09  3.1708e-10  1.8137e-11  0:01:27  639
  3362  1.0282e-09  3.1592e-10  1.8098e-11  0:01:26  638

  iter  continuity  x-velocity  y-velocity     time/iter
  3363  1.0340e-09  3.1476e-10  1.8056e-11  0:01:27  637
  3364  1.0426e-09  3.1361e-10  1.8015e-11  0:01:27  636
  3365  1.0531e-09  3.1246e-10  1.7974e-11  0:01:27  635
  3366  1.0646e-09  3.1132e-10  1.7934e-11  0:01:26  634
  3367  1.0769e-09  3.1019e-10  1.7894e-11  0:01:26  633
  3368  1.0889e-09  3.0905e-10  1.7854e-11  0:01:26  632
  3369  1.0999e-09  3.0793e-10  1.7814e-11  0:01:25  631
  3370  1.1093e-09  3.0681e-10  1.7774e-11  0:01:25  630
  3371  1.1168e-09  3.0570e-10  1.7734e-11  0:01:25  629
  3372  1.1220e-09  3.0459e-10  1.7694e-11  0:01:25  628
  3373  1.1247e-09  3.0349e-10  1.7655e-11  0:01:25  627

  iter  continuity  x-velocity  y-velocity     time/iter
  3374  1.1248e-09  3.0240e-10  1.7615e-11  0:01:25  626
  3375  1.1222e-09  3.0131e-10  1.7576e-11  0:01:24  625
  3376  1.1169e-09  3.0022e-10  1.7537e-11  0:01:24  624
  3377  1.1015e-09  2.9912e-10  1.7498e-11  0:01:24  623
  3378  1.1098e-09  2.9804e-10  1.7458e-11  0:01:24  622
  3379  1.1225e-09  2.9695e-10  1.7419e-11  0:01:24  621
  3380  1.1395e-09  2.9588e-10  1.7380e-11  0:01:24  620
  3381  1.1630e-09  2.9481e-10  1.7341e-11  0:01:23  619
  3382  1.1727e-09  2.9375e-10  1.7303e-11  0:01:23  618
  3383  1.1796e-09  2.9269e-10  1.7264e-11  0:01:23  617
  3384  1.1827e-09  2.9164e-10  1.7226e-11  0:01:24  616

  iter  continuity  x-velocity  y-velocity     time/iter
  3385  1.1818e-09  2.9059e-10  1.7187e-11  0:01:24  615
  3386  1.1771e-09  2.8955e-10  1.7149e-11  0:01:23  614
  3387  1.1691e-09  2.8851e-10  1.7112e-11  0:01:23  613
  3388  1.1586e-09  2.8747e-10  1.7074e-11  0:01:23  612
  3389  1.1463e-09  2.8644e-10  1.7036e-11  0:01:25  611
  3390  1.1326e-09  2.8541e-10  1.6998e-11  0:01:24  610
  3391  1.1192e-09  2.8439e-10  1.6954e-11  0:01:23  609
  3392  1.1080e-09  2.8336e-10  1.6920e-11  0:01:23  608
  3393  1.1002e-09  2.8234e-10  1.6886e-11  0:01:23  607
  3394  1.0961e-09  2.8132e-10  1.6849e-11  0:01:23  606
  3395  1.0936e-09  2.8031e-10  1.6811e-11  0:01:23  605

  iter  continuity  x-velocity  y-velocity     time/iter
  3396  1.0919e-09  2.7930e-10  1.6773e-11  0:01:22  604
  3397  1.0903e-09  2.7830e-10  1.6736e-11  0:01:22  603
  3398  1.0889e-09  2.7730e-10  1.6699e-11  0:01:22  602
  3399  1.0873e-09  2.7630e-10  1.6662e-11  0:01:22  601
  3400  1.0859e-09  2.7531e-10  1.6625e-11  0:01:22  600
  3401  1.0845e-09  2.7432e-10  1.6589e-11  0:01:22  599
  3402  1.0835e-09  2.7334e-10  1.6552e-11  0:01:22  598
  3403  1.0828e-09  2.7236e-10  1.6516e-11  0:02:06  597
  3404  1.0825e-09  2.7138e-10  1.6479e-11  0:01:56  596
  3405  1.0825e-09  2.7041e-10  1.6443e-11  0:01:50  595
  3406  1.0851e-09  2.6945e-10  1.6415e-11  0:01:44  594

  iter  continuity  x-velocity  y-velocity     time/iter
  3407  1.0785e-09  2.6849e-10  1.6373e-11  0:01:40  593
  3408  1.0694e-09  2.6753e-10  1.6334e-11  0:01:36  592
  3409  1.0571e-09  2.6658e-10  1.6298e-11  0:01:33  591
  3410  1.0417e-09  2.6563e-10  1.6263e-11  0:01:30  590
  3411  1.0248e-09  2.6468e-10  1.6227e-11  0:01:27  589
  3412  1.0074e-09  2.6374e-10  1.6192e-11  0:01:25  588
  3413  9.9021e-10  2.6280e-10  1.6156e-11  0:01:24  587
! 3413 solution is converged

Calculation complete.
(cx-gui-do cx-set-list-tree-selections "NavigationPane*Frame2*Table1*List_Tree2" (list "Results|Graphics|Contours|contour-1"))
(cx-gui-do cx-set-list-tree-selections "NavigationPane*Frame2*Table1*List_Tree2" (list "Results|Graphics|Contours|contour-1"))
(cx-gui-do cx-activate-item "NavigationPane*Frame2*Table1*List_Tree2")
(cx-gui-do cx-set-list-tree-selections "NavigationPane*Frame2*Table1*List_Tree2" (list "Results|Graphics|Contours|contour-1"))
(cx-gui-do cx-activate-item "Contours*PanelButtons*PushButton1(OK)")
(cx-gui-do cx-activate-item "Contours*PanelButtons*PushButton2(Cancel)")
(cx-gui-do cx-activate-item "Information*OK")
(cx-gui-do cx-set-list-tree-selections "NavigationPane*Frame2*Table1*List_Tree2" (list "Results|Graphics|Contours|contour-1"))
(cx-gui-do cx-set-list-tree-selections "NavigationPane*Frame2*Table1*List_Tree2" (list "Results|Graphics|Contours|contour-1"))
(cx-gui-do cx-activate-item "NavigationPane*Frame2*Table1*List_Tree2")
(cx-gui-do cx-set-list-tree-selections "NavigationPane*Frame2*Table1*List_Tree2" (list "Results|Graphics|Contours|contour-1"))
(cx-gui-do cx-activate-item "Contours*PanelButtons*PushButton2(Cancel)")
(cx-gui-do cx-set-list-tree-selections "NavigationPane*Frame2*Table1*List_Tree2" (list "Results|Graphics|Vectors"))
(cx-gui-do cx-set-list-tree-selections "NavigationPane*Frame2*Table1*List_Tree2" (list "Results|Graphics|Vectors"))
(cx-gui-do cx-activate-item "NavigationPane*Frame2*Table1*List_Tree2")
(cx-gui-do cx-set-list-tree-selections "NavigationPane*Frame2*Table1*List_Tree2" (list "Results|Graphics|Vectors"))
(cx-gui-do cx-activate-item "Vectors*PanelButtons*PushButton2(Cancel)")
(cx-gui-do cx-set-list-tree-selections "NavigationPane*Frame2*Table1*List_Tree2" (list "Results|Graphics|Pathlines"))
(cx-gui-do cx-set-list-tree-selections "NavigationPane*Frame2*Table1*List_Tree2" (list "Results|Graphics|Pathlines"))
(cx-gui-do cx-activate-item "NavigationPane*Frame2*Table1*List_Tree2")
(cx-gui-do cx-set-list-tree-selections "NavigationPane*Frame2*Table1*List_Tree2" (list "Results|Graphics|Pathlines"))
(cx-gui-do cx-set-list-selections "Pathlines*Frame4*Table1*DropDownList1(Color by)" '( 3))
(cx-gui-do cx-activate-item "Pathlines*Frame4*Table1*DropDownList1(Color by)")
(cx-gui-do cx-set-list-selections "Pathlines*Frame4*Table1*DropDownList2" '( 1))
(cx-gui-do cx-activate-item "Pathlines*Frame4*Table1*DropDownList2")
(cx-gui-do cx-set-list-selections "Pathlines*Frame4*List3(Release from Surfaces)" '( 2))
(cx-gui-do cx-activate-item "Pathlines*Frame4*List3(Release from Surfaces)")
(cx-gui-do cx-activate-item "Pathlines*PanelButtons*PushButton1(OK)")

number tracked = 100000, escaped = 34429, incomplete = 65571
(cx-gui-do cx-activate-item "Pathlines*PanelButtons*PushButton2(Cancel)")
(cx-gui-do cx-set-list-tree-selections "NavigationPane*Frame2*Table1*List_Tree2" (list "Results|Graphics|Pathlines|pathlines-1"))
(cx-gui-do cx-set-list-tree-selections "NavigationPane*Frame2*Table1*List_Tree2" (list "Results|Graphics|Pathlines|pathlines-1"))
(cx-gui-do cx-activate-item "NavigationPane*Frame2*Table1*List_Tree2")
(cx-gui-do cx-set-list-tree-selections "NavigationPane*Frame2*Table1*List_Tree2" (list "Results|Graphics|Pathlines|pathlines-1"))
(cx-gui-do cx-activate-item "Pathlines*Frame2*PushButton5(Colormap Options)")
(cx-gui-do cx-set-integer-entry "Colormap*Table1*Frame5(Colormap)*IntegerEntry2(Colormap Size)" 10)
(cx-gui-do cx-activate-item "Colormap*Table1*Frame5(Colormap)*IntegerEntry2(Colormap Size)")
(cx-gui-do cx-activate-item "Colormap*Table1*Frame5(Colormap)*IntegerEntry2(Colormap Size)")
(cx-gui-do cx-activate-item "Colormap*PanelButtons*PushButton1(OK)")

number tracked = 100000, escaped = 34429, incomplete = 65571
(cx-gui-do cx-activate-item "Colormap*PanelButtons*PushButton2(Cancel)")
(cx-gui-do cx-activate-item "Pathlines*PanelButtons*PushButton2(Cancel)")
(cx-gui-do cx-set-list-tree-selections "NavigationPane*Frame2*Table1*List_Tree2" (list "Results|Graphics|Pathlines|pathlines-1"))
(cx-gui-do cx-list-tree-right-click "NavigationPane*Frame2*Table1*List_Tree2" )
(cx-gui-do cx-activate-item "MenuBar*PopupMenuTree-pathlines-1*Delete")
(cx-gui-do cx-activate-item "Question*OK")
(cx-gui-do cx-set-list-tree-selections "NavigationPane*Frame2*Table1*List_Tree2" (list "Results|Graphics|Particle Tracks"))
(cx-gui-do cx-set-list-tree-selections "NavigationPane*Frame2*Table1*List_Tree2" (list "Results|Graphics|Particle Tracks"))
(cx-gui-do cx-activate-item "NavigationPane*Frame2*Table1*List_Tree2")
(cx-gui-do cx-set-list-tree-selections "NavigationPane*Frame2*Table1*List_Tree2" (list "Results|Graphics|Particle Tracks"))
(cx-gui-do cx-set-list-selections "Particle Tracks*Frame3*Table1*DropDownList1(Color by)" '( 3))
(cx-gui-do cx-activate-item "Particle Tracks*Frame3*Table1*DropDownList1(Color by)")
(cx-gui-do cx-set-list-selections "Particle Tracks*Frame3*Table1*DropDownList2" '( 7))
(cx-gui-do cx-activate-item "Particle Tracks*Frame3*Table1*DropDownList2")
(cx-gui-do cx-set-list-selections "Particle Tracks*Frame3*Table1*DropDownList2" '( 1))
(cx-gui-do cx-activate-item "Particle Tracks*Frame3*Table1*DropDownList2")
(cx-gui-do cx-set-list-tree-selections "NavigationPane*Frame2*Table1*List_Tree2" (list "Results|Graphics|Contours|contour-1"))
(cx-gui-do cx-list-tree-right-click "NavigationPane*Frame2*Table1*List_Tree2" )
(cx-gui-do cx-activate-item "MenuBar*PopupMenuTree-contour-1*Delete")
(cx-gui-do cx-activate-item "Question*OK")
(cx-gui-do cx-set-list-tree-selections "NavigationPane*Frame2*Table1*List_Tree2" (list "Results|Graphics|Contours|contour-2"))
(cx-gui-do cx-list-tree-right-click "NavigationPane*Frame2*Table1*List_Tree2" )
(cx-gui-do cx-activate-item "MenuBar*PopupMenuTree-contour-2*Delete")
(cx-gui-do cx-activate-item "Question*OK")
(cx-gui-do cx-set-list-selections "Particle Tracks*Table2*Frame1*Frame2*Frame2(Vector Style)*Frame1*DropDownList1" '( 1))
(cx-gui-do cx-activate-item "Particle Tracks*Table2*Frame1*Frame2*Frame2(Vector Style)*Frame1*DropDownList1")
(cx-gui-do cx-set-toggle-button2 "Particle Tracks*Table2*Frame1*Frame1*ToggleBox1(Options)*CheckButton4(XY Plot)" #t)
(cx-gui-do cx-activate-item "Particle Tracks*Table2*Frame1*Frame1*ToggleBox1(Options)*CheckButton4(XY Plot)")
(cx-gui-do cx-set-toggle-button2 "Particle Tracks*Table2*Frame1*Frame1*ToggleBox1(Options)*CheckButton4(XY Plot)" #f)
(cx-gui-do cx-activate-item "Particle Tracks*Table2*Frame1*Frame1*ToggleBox1(Options)*CheckButton4(XY Plot)")
(cx-gui-do cx-set-list-selections "Particle Tracks*Table2*Frame1*Frame2*Frame1(Track Style)*Frame1*DropDownList1" '( 1))
(cx-gui-do cx-activate-item "Particle Tracks*Table2*Frame1*Frame2*Frame1(Track Style)*Frame1*DropDownList1")
(cx-gui-do cx-set-list-selections "Particle Tracks*Frame3*Table6(Display State)*DropDownList1" '( 0))
(cx-gui-do cx-activate-item "Particle Tracks*Frame3*Table6(Display State)*DropDownList1")
(cx-gui-do cx-activate-item "Display States*PanelButtons*PushButton2(Close)")
(cx-gui-do cx-set-toggle-button2 "Particle Tracks*Table2*Table2(Reporting)*Table1*ToggleBox1(Report Type)*Summary" #t)
(cx-gui-do cx-activate-item "Particle Tracks*Table2*Table2(Reporting)*Table1*ToggleBox1(Report Type)*Summary")
(cx-gui-do cx-set-toggle-button2 "Particle Tracks*Table2*Table2(Reporting)*Table1*ToggleBox1(Report Type)*Step By Step" #t)
(cx-gui-do cx-activate-item "Particle Tracks*Table2*Table2(Reporting)*Table1*ToggleBox1(Report Type)*Step By Step")
(cx-gui-do cx-set-integer-entry "Particle Tracks*Table2*Table2(Reporting)*Table2*IntegerEntry1(Significant Figures)" 1)
(cx-gui-do cx-activate-item "Particle Tracks*Table2*Table2(Reporting)*Table2*IntegerEntry1(Significant Figures)")
(cx-gui-do cx-activate-item "Particle Tracks*PanelButtons*PushButton2(Cancel)")
(cx-gui-do cx-set-list-tree-selections "NavigationPane*Frame2*Table1*List_Tree2" (list "Results|Graphics|Pathlines"))
(cx-gui-do cx-set-list-tree-selections "NavigationPane*Frame2*Table1*List_Tree2" (list "Results|Graphics|Pathlines"))
(cx-gui-do cx-activate-item "NavigationPane*Frame2*Table1*List_Tree2")
(cx-gui-do cx-set-list-tree-selections "NavigationPane*Frame2*Table1*List_Tree2" (list "Results|Graphics|Pathlines"))
(cx-gui-do cx-set-list-selections "Pathlines*Frame4*List3(Release from Surfaces)" '( 5))
(cx-gui-do cx-activate-item "Pathlines*Frame4*List3(Release from Surfaces)")
(cx-gui-do cx-set-list-selections "Pathlines*Frame4*Table1*DropDownList1(Color by)" '( 3))
(cx-gui-do cx-activate-item "Pathlines*Frame4*Table1*DropDownList1(Color by)")
(cx-gui-do cx-set-list-selections "Pathlines*Frame4*Table1*DropDownList2" '( 1))
(cx-gui-do cx-activate-item "Pathlines*Frame4*Table1*DropDownList2")
(cx-gui-do cx-activate-item "Pathlines*PanelButtons*PushButton1(OK)")

number tracked = 100, escaped = 100
(cx-gui-do cx-activate-item "Pathlines*PanelButtons*PushButton2(Cancel)")
(cx-gui-do cx-set-list-tree-selections "NavigationPane*Frame2*Table1*List_Tree2" (list "Results|Plots|XY Plot|xy-plot-1"))
(cx-gui-do cx-set-list-tree-selections "NavigationPane*Frame2*Table1*List_Tree2" (list "Results|Plots|XY Plot|xy-plot-1"))
(cx-gui-do cx-activate-item "NavigationPane*Frame2*Table1*List_Tree2")
(cx-gui-do cx-set-list-tree-selections "NavigationPane*Frame2*Table1*List_Tree2" (list "Results|Plots|XY Plot|xy-plot-1"))
(cx-gui-do cx-activate-item "Solution XY Plot*PanelButtons*PushButton1(OK)")
(cx-gui-do cx-activate-item "Solution XY Plot*PanelButtons*PushButton2(Cancel)")
(cx-gui-do cx-set-list-tree-selections "NavigationPane*Frame2*Table1*List_Tree2" (list "Results|Plots|XY Plot|xy-plot-1"))
(cx-gui-do cx-set-list-tree-selections "NavigationPane*Frame2*Table1*List_Tree2" (list "Results|Plots|XY Plot|xy-plot-1"))
(cx-gui-do cx-activate-item "NavigationPane*Frame2*Table1*List_Tree2")
(cx-gui-do cx-set-list-tree-selections "NavigationPane*Frame2*Table1*List_Tree2" (list "Results|Plots|XY Plot|xy-plot-1"))
(cx-gui-do cx-set-toggle-button2 "Solution XY Plot*Table1*Table1*ButtonBox1(Options)*CheckButton4(Write to File)" #t)
(cx-gui-do cx-activate-item "Solution XY Plot*Table1*Table1*ButtonBox1(Options)*CheckButton4(Write to File)")
(cx-gui-do cx-activate-item "Solution XY Plot*PanelButtons*PushButton1(OK)")
(cx-gui-do cx-set-file-dialog-entries "Select File" '( "fine1.8.txt") "XY Files (*.xy)")
(cx-gui-do cx-activate-item "Solution XY Plot*PanelButtons*PushButton2(Cancel)")
(cx-gui-do cx-set-list-tree-selections "NavigationPane*Frame2*Table1*List_Tree2" (list "Results|Plots|XY Plot|xy-plot-2"))
(cx-gui-do cx-set-list-tree-selections "NavigationPane*Frame2*Table1*List_Tree2" (list "Results|Plots|XY Plot|xy-plot-2"))
(cx-gui-do cx-activate-item "NavigationPane*Frame2*Table1*List_Tree2")
(cx-gui-do cx-set-list-tree-selections "NavigationPane*Frame2*Table1*List_Tree2" (list "Results|Plots|XY Plot|xy-plot-2"))
(cx-gui-do cx-set-toggle-button2 "Solution XY Plot*Table1*Table1*ButtonBox1(Options)*CheckButton4(Write to File)" #t)
(cx-gui-do cx-activate-item "Solution XY Plot*Table1*Table1*ButtonBox1(Options)*CheckButton4(Write to File)")
(cx-gui-do cx-activate-item "Solution XY Plot*PanelButtons*PushButton1(OK)")
(cx-gui-do cx-set-file-dialog-entries "Select File" '( "outletfine.txt") "XY Files (*.xy)")
(cx-gui-do cx-activate-item "Solution XY Plot*PanelButtons*PushButton2(Cancel)")
