Auto-Transcript Start Time:  12:34:38, 18 Oct 2025 GMT Summer Time 
Current Directory: "C:\Users\y.chavali.176\OneDrive - Cranfield University\fm_assignment"

              Welcome to ANSYS Fluent 2025 R2

              Copyright 1987-2025 ANSYS, Inc. All Rights Reserved.
              Unauthorized use, distribution or duplication is prohibited.
              This product is subject to U.S. laws governing export and re-export.
              For full Legal Notice, see documentation.

Build Time: Jun 16 2025 10:46:43 EDT  Build Id: 10204  
 
Connected License Server List:	1055@cclic-2.central.cranfield.ac.uk

*********************************************
Info: Your license enables 4-way parallel execution.
For faster simulations, please start the application with the appropriate parallel options.
*********************************************


     --------------------------------------------------------------
     This is an academic version of ANSYS FLUENT. Usage of this product
     license is limited to the terms and conditions specified in your ANSYS
     license form, additional terms section.
     --------------------------------------------------------------
Host spawning Node 0 on machine "37PCL046" (win64).

-------------------------------------------------------------------------------
ID    Hostname  Core  O.S.         PID    Vendor                          
-------------------------------------------------------------------------------
n0    37PCL046  1/28  Windows-x64  33808  Intel(R) Core(TM) i7-14700      
host  37PCL046        Windows-x64  37372  Intel(R) Core(TM) i7-14700      

MPI Option Selected: intel
-------------------------------------------------------------------------------

Cleanup script file is C:\\Users\\y.chavali.176\\OneDrive - Cranfield University\\fm_assignment\\cleanup-fluent-37PCL046-37372.bat

Graphics driver currently in use: dx11


Posting ANSYS Product Improvement Program startup data
Done.
Note: Rank = 0: Process affinity not being set (6).
Reading "C:/Users/y.chavali.176/OneDrive - Cranfield University/fm_assignment/flatplate_1000x20.bdf"...
Buffering for file scan...


Building...
     mesh
Error: Null Domain Pointer

Error: api-get-var: the object is not active
Error Object: setup/general/solver/time

The mesh has been modified.
Previously saved data files are incompatible and cannot be read.

> (cx-gui-do cx-activate-item "Information*OK")
(cx-gui-do cx-activate-item "Key Behavioral Changes*PanelButtons*PushButton1(OK)")
(cx-gui-do cx-activate-item "MenuBar*ReadSubMenu*Mesh...")
(cx-gui-do cx-set-file-dialog-entries "Select File" '( "flatplate_1000x20.bdf") "All Files (*)")
Note: Rank = 0: Process affinity not being set (6).
Reading "C:/Users/y.chavali.176/OneDrive - Cranfield University/fm_assignment/flatplate_1000x20.bdf"...
Buffering for file scan...


Building...
     mesh
Error: Null Domain Pointer

Error: api-get-var: the object is not active
Error Object: setup/general/solver/time
(cx-gui-do cx-activate-item "MenuBar*ReadSubMenu*Mesh...")
(cx-gui-do cx-set-file-dialog-entries "Select File" '( "flatplate_1000x20") "All Files (*)")
Note: Rank = 0: Process affinity not being set (6).
Reading "C:/Users/y.chavali.176/OneDrive - Cranfield University/fm_assignment/flatplate_1000x20"...
Buffering for file scan...


Building...
     mesh
Error: Null Domain Pointer

Error: api-get-var: the object is not active
Error Object: setup/general/solver/time
(cx-gui-do cx-activate-item "MenuBar*ReadSubMenu*Mesh...")
(cx-gui-do cx-set-file-dialog-entries "Select File" '( "channel_example_mesh.msh") "All Mesh Files (*.msh* *.MSH* )")
Note: Rank = 0: Process affinity not being set (6).
Reading "C:/Users/y.chavali.176/OneDrive - Cranfield University/fm_assignment/channel_example_mesh.msh"...
Buffering for file scan...

   11011 nodes.
      10 mixed velocity-inlet faces, zone  3.
    1000 mixed wall faces, zone  4.
      10 mixed outflow faces, zone  5.
    1000 mixed wall faces, zone  6.
   18990 mixed interior faces, zone  8.
   10000 quadrilateral cells, zone  2.

Building...
     mesh
     materials,
     interface,
     domains,
     zones,
	default-interior
	bottom
	right
	top
	left
	fluid
     parallel,
Done.
(cx-gui-do cx-activate-item "General*Table1*ButtonBox1(Mesh)*PushButton2(Display)")
(cx-gui-do cx-activate-item "Mesh Display*PanelButtons*PushButton1(OK)")
(cx-gui-do cx-activate-item "Mesh Display*PanelButtons*PushButton2(Cancel)")
(cx-gui-do cx-activate-item "Ribbon*Frame1*Frame2(Domain)*Table1*Table3(Mesh)*PushButton6(Scale)")
(cx-gui-do cx-set-toggle-button2 "Scale Mesh*Table1*Table2(Scaling)*ToggleBox1*Specify Scaling Factors" #t)
(cx-gui-do cx-activate-item "Scale Mesh*Table1*Table2(Scaling)*ToggleBox1*Specify Scaling Factors")
(cx-gui-do cx-activate-item "Scale Mesh*PanelButtons*PushButton1(Close)")
(cx-gui-do cx-activate-item "Ribbon*Frame1*Frame2(Domain)*Table1*Table3(Adapt)*Table1*PushButton1(Manual)")
(cx-gui-do cx-activate-item "Manual Mesh Adaption*Table1*Table2*Table1*PushButton2(Cell Registers)")
(cx-gui-do cx-activate-item "MenuBar*NewSubMenu*Region...")
(cx-gui-do cx-activate-item "Ribbon*Frame1*Frame2(Domain)*Table1*Table3(Mesh)*PushButton6(Scale)")
(cx-gui-do cx-set-real-entry-list "Region Register*Table3*Frame1(Input Coordinates)*RealEntry5(X Max)" '( 10))
(cx-gui-do cx-set-real-entry-list "Region Register*Table3*Frame1(Input Coordinates)*RealEntry6(Y Max)" '( 0.1))
(cx-gui-do cx-activate-item "Region Register*PanelButtons*PushButton7(Save/Display)")
10000 cells marked
(cx-gui-do cx-activate-item "Region Register*PanelButtons*PushButton2(Cancel)")
(cx-gui-do cx-set-expression-entry "Manual Mesh Adaption*Table1*Table1*Table1*ExpressionEntry1(Refinement Criterion)" '("region_0" . 5))
(cx-gui-do cx-activate-item "Manual Mesh Adaption*Table1*Table1*Table1*ExpressionEntry1(Refinement Criterion)")
(cx-gui-do cx-activate-item "Manual Mesh Adaption*PanelButtons*PushButton1(Apply)")


 Grid size [    original |     adapted |      change ]
     cells [      10,000 |      40,000 |     +30,000 ]
     faces [      21,010 |      82,020 |     +61,010 ]
(cx-gui-do cx-activate-item "Manual Mesh Adaption*PanelButtons*PushButton2(Close)")
(cx-gui-do cx-activate-item "Ribbon*Frame1*Frame2(Domain)*Table1*Table3(Mesh)*PushButton1(Display)")
(cx-gui-do cx-activate-item "Mesh Display*PanelButtons*PushButton1(OK)")
(cx-gui-do cx-activate-item "Mesh Display*PanelButtons*PushButton2(Cancel)")
(cx-gui-do cx-activate-item "Ribbon*Frame1*Frame2(Domain)*Table1*Table3(Adapt)*Table1*PushButton1(Manual)")
(cx-gui-do cx-set-expression-entry "Manual Mesh Adaption*Table1*Table1*Table1*ExpressionEntry1(Refinement Criterion)" '("" . 4))
(cx-gui-do cx-activate-item "Manual Mesh Adaption*Table1*Table1*Table1*ExpressionEntry1(Refinement Criterion)")
(cx-gui-do cx-set-expression-entry "Manual Mesh Adaption*Table1*Table1*Table1*ExpressionEntry2(Coarsening Criterion)" '("region_0" . 5))
(cx-gui-do cx-activate-item "Manual Mesh Adaption*Table1*Table1*Table1*ExpressionEntry2(Coarsening Criterion)")
(cx-gui-do cx-activate-item "Manual Mesh Adaption*PanelButtons*PushButton1(Apply)")


 Grid size [    original |     adapted |      change ]
     cells [      40,000 |      10,000 |     -30,000 ]
     faces [      82,020 |      21,010 |     -61,010 ]
(cx-gui-do cx-activate-item "Manual Mesh Adaption*PanelButtons*PushButton2(Close)")
(cx-gui-do cx-activate-item "Ribbon*Frame1*Frame2(Domain)*Table1*Table3(Mesh)*PushButton1(Display)")
(cx-gui-do cx-activate-item "Mesh Display*PanelButtons*PushButton1(OK)")
(cx-gui-do cx-activate-item "Mesh Display*PanelButtons*PushButton2(Cancel)")
(cx-gui-do cx-activate-item "Ribbon*Frame1*Frame2(Domain)*Table1*Table3(Adapt)*Table1*PushButton1(Manual)")
(cx-gui-do cx-activate-item "Manual Mesh Adaption*PanelButtons*PushButton1(Apply)")
(cx-gui-do cx-activate-item "Manual Mesh Adaption*Table1*Table2*Table1*PushButton1(Predefined Criteria)")
(cx-gui-do cx-activate-item "Manual Mesh Adaption*Table1*Table2*Table1*PushButton1(Predefined Criteria)")
(cx-gui-do cx-activate-item "Manual Mesh Adaption*Table1*Table2*Table1*PushButton2(Cell Registers)")
(cx-gui-do cx-activate-item "MenuBar*NewSubMenu*Region...")
(cx-gui-do cx-activate-item "Region Register*PanelButtons*PushButton2(Cancel)")
(cx-gui-do cx-activate-item "Manual Mesh Adaption*PanelButtons*PushButton2(Close)")
(cx-gui-do cx-activate-item "Scale Mesh*PanelButtons*PushButton1(Close)")
(cx-gui-do cx-activate-item "Ribbon*Frame1*Frame2(Domain)*Table1*Table3(Mesh)*PushButton6(Scale)")
(cx-gui-do cx-set-real-entry-list "Scale Mesh*Table1*Table2(Scaling)*Frame3(Scaling Factors)*RealEntry2(Y)" '( 2.5))
(cx-gui-do cx-activate-item "Scale Mesh*Table1*Table2(Scaling)*PushButton4(Scale)")
(cx-gui-do cx-activate-item "Scale Mesh*PanelButtons*PushButton1(Close)")
(cx-gui-do cx-set-list-tree-selections "NavigationPane*Frame2*Table1*List_Tree2" (list "Setup|Models|Viscous (SST k-omega)"))
(cx-gui-do cx-set-list-tree-selections "NavigationPane*Frame2*Table1*List_Tree2" (list "Setup|Models|Viscous (SST k-omega)"))
(cx-gui-do cx-activate-item "NavigationPane*Frame2*Table1*List_Tree2")
(cx-gui-do cx-set-list-tree-selections "NavigationPane*Frame2*Table1*List_Tree2" (list "Setup|Models|Viscous (SST k-omega)"))
(cx-gui-do cx-set-toggle-button2 "Viscous Model*Table1*ToggleBox1(Model)*Laminar" #t)
(cx-gui-do cx-activate-item "Viscous Model*Table1*ToggleBox1(Model)*Laminar")
(cx-gui-do cx-activate-item "Viscous Model*PanelButtons*PushButton1(OK)")
(cx-gui-do cx-set-list-tree-selections "NavigationPane*Frame2*Table1*List_Tree2" (list "Setup|Models|Viscous (Laminar)"))
(cx-gui-do cx-set-list-tree-selections "NavigationPane*Frame2*Table1*List_Tree2" (list "Setup|Materials|Fluid"))
(cx-gui-do cx-set-list-tree-selections "NavigationPane*Frame2*Table1*List_Tree2" (list "Setup|Materials|Fluid"))
(cx-gui-do cx-activate-item "NavigationPane*Frame2*Table1*List_Tree2")
(cx-gui-do cx-set-list-tree-selections "NavigationPane*Frame2*Table1*List_Tree2" (list "Setup|Materials|Fluid"))
(cx-gui-do cx-set-list-tree-selections "NavigationPane*Frame2*Table1*List_Tree2" (list "Setup|Materials"))
(cx-gui-do cx-set-list-tree-selections "NavigationPane*Frame2*Table1*List_Tree2" (list "Setup|Materials"))
(cx-gui-do cx-activate-item "NavigationPane*Frame2*Table1*List_Tree2")
(cx-gui-do cx-set-list-tree-selections "NavigationPane*Frame2*Table1*List_Tree2" (list "Setup|Materials"))
(cx-gui-do cx-set-list-tree-selections "NavigationPane*Frame2*Table1*List_Tree2" (list "Setup|Materials"))
(cx-gui-do cx-set-list-tree-selections "NavigationPane*Frame2*Table1*List_Tree2" (list "Setup|Materials"))
(cx-gui-do cx-activate-item "NavigationPane*Frame2*Table1*List_Tree2")
(cx-gui-do cx-set-list-tree-selections "NavigationPane*Frame2*Table1*List_Tree2" (list "Setup|Materials"))
(cx-gui-do cx-set-list-tree-selections "NavigationPane*Frame2*Table1*List_Tree2" (list "Setup|Materials|Fluid"))
(cx-gui-do cx-set-list-tree-selections "NavigationPane*Frame2*Table1*List_Tree2" (list "Setup|Materials|Fluid"))
(cx-gui-do cx-activate-item "NavigationPane*Frame2*Table1*List_Tree2")
(cx-gui-do cx-set-list-tree-selections "NavigationPane*Frame2*Table1*List_Tree2" (list "Setup|Materials|Fluid"))
(cx-gui-do cx-set-list-tree-selections "NavigationPane*Frame2*Table1*List_Tree2" (list "Setup|Materials|Fluid"))
(cx-gui-do cx-set-list-tree-selections "NavigationPane*Frame2*Table1*List_Tree2" (list "Setup|Materials"))
(cx-gui-do cx-set-list-tree-selections "NavigationPane*Frame2*Table1*List_Tree2" (list "Setup|Materials"))
(cx-gui-do cx-activate-item "NavigationPane*Frame2*Table1*List_Tree2")
(cx-gui-do cx-set-list-tree-selections "NavigationPane*Frame2*Table1*List_Tree2" (list "Setup|Materials"))
(cx-gui-do cx-set-list-tree-selections "NavigationPane*Frame2*Table1*List_Tree2" (list "Setup|Materials"))
(cx-gui-do cx-set-list-tree-selections "NavigationPane*Frame2*Table1*List_Tree2" (list "Setup|Materials"))
(cx-gui-do cx-set-list-tree-selections "NavigationPane*Frame2*Table1*List_Tree2" (list "Setup|Materials"))
(cx-gui-do cx-activate-item "NavigationPane*Frame2*Table1*List_Tree2")
(cx-gui-do cx-set-list-tree-selections "NavigationPane*Frame2*Table1*List_Tree2" (list "Setup|Materials"))
(cx-gui-do cx-set-list-tree-selections "NavigationPane*Frame2*Table1*List_Tree2" (list "Setup|Materials"))
(cx-gui-do cx-set-list-tree-selections "NavigationPane*Frame2*Table1*List_Tree2" (list "Setup|Materials|Fluid"))
(cx-gui-do cx-set-list-tree-selections "NavigationPane*Frame2*Table1*List_Tree2" (list "Setup|Materials|Fluid"))
(cx-gui-do cx-activate-item "NavigationPane*Frame2*Table1*List_Tree2")
(cx-gui-do cx-set-list-tree-selections "NavigationPane*Frame2*Table1*List_Tree2" (list "Setup|Materials|Fluid"))
(cx-gui-do cx-set-list-tree-selections "NavigationPane*Frame2*Table1*List_Tree2" (list "Setup|Materials|Fluid|air"))
(cx-gui-do cx-set-list-tree-selections "NavigationPane*Frame2*Table1*List_Tree2" (list "Setup|Materials|Fluid|air"))
(cx-gui-do cx-activate-item "NavigationPane*Frame2*Table1*List_Tree2")
(cx-gui-do cx-set-list-tree-selections "NavigationPane*Frame2*Table1*List_Tree2" (list "Setup|Materials|Fluid|air"))
(cx-gui-do cx-activate-item "Create/Edit Materials*Table1*Frame1*Frame2*ButtonBox2*PushButton1(Fluent Database)")
(cx-gui-do cx-set-list-selections "Fluent Database Materials*Table1*Frame1*List1(Materials)" '( 575))
(cx-gui-do cx-activate-item "Fluent Database Materials*Table1*Frame1*List1(Materials)")
(cx-gui-do cx-activate-item "Fluent Database Materials*PanelButtons*PushButton1(Close)")
(cx-gui-do cx-activate-item "Create/Edit Materials*Table1*Frame1*Frame2*ButtonBox2*PushButton1(Fluent Database)")
(cx-gui-do cx-set-list-selections "Fluent Database Materials*Table1*Frame1*List1(Materials)" '( 574 575))
(cx-gui-do cx-activate-item "Fluent Database Materials*Table1*Frame1*List1(Materials)")
(cx-gui-do cx-activate-item "Fluent Database Materials*PanelButtons*PushButton6(Copy)")
(cx-gui-do cx-activate-item "Fluent Database Materials*PanelButtons*PushButton1(Close)")
(cx-gui-do cx-set-list-selections "Create/Edit Materials*Table1*Frame1*Table1*DropDownList4(Materials)" '( 1))
(cx-gui-do cx-activate-item "Create/Edit Materials*Table1*Frame1*Table1*DropDownList4(Materials)")
(cx-gui-do cx-set-real-entry-list "Create/Edit Materials*RealEntry10" '( 1000))
(cx-gui-do cx-set-real-entry-list "Create/Edit Materials*RealEntry16" '( 0.00102))
(cx-gui-do cx-activate-item "Create/Edit Materials*PanelButtons*PushButton3(Change/Create)")
(cx-gui-do cx-activate-item "Create/Edit Materials*PanelButtons*PushButton1(Close)")
(cx-gui-do cx-set-list-selections "Materials*Table1*List1(Materials)" '( 1))
(cx-gui-do cx-activate-item "Materials*Table1*List1(Materials)")
(cx-gui-do cx-set-list-tree-selections "NavigationPane*Frame2*Table1*List_Tree2" (list ))
(cx-gui-do cx-set-list-tree-selections "NavigationPane*Frame2*Table1*List_Tree2" (list "Setup|Materials|Fluid|water-vapor"))
(cx-gui-do cx-list-tree-right-click "NavigationPane*Frame2*Table1*List_Tree2" )
(cx-gui-do cx-activate-item "MenuBar*PopupMenuTree-water-vapor*Delete")
(cx-gui-do cx-activate-item "Question*OK")
(cx-gui-do cx-set-list-tree-selections "NavigationPane*Frame2*Table1*List_Tree2" (list ))
(cx-gui-do cx-set-list-tree-selections "NavigationPane*Frame2*Table1*List_Tree2" (list "Setup|Cell Zone Conditions|Fluid"))
(cx-gui-do cx-set-list-tree-selections "NavigationPane*Frame2*Table1*List_Tree2" (list "Setup|Cell Zone Conditions|Fluid"))
(cx-gui-do cx-activate-item "NavigationPane*Frame2*Table1*List_Tree2")
(cx-gui-do cx-set-list-tree-selections "NavigationPane*Frame2*Table1*List_Tree2" (list "Setup|Cell Zone Conditions|Fluid"))
(cx-gui-do cx-activate-tab-index "Fluid*Frame2*Table3*Frame1" 0)
(cx-gui-do cx-activate-tab-index "Fluid*Frame2*Table3*Frame1" 1)
(cx-gui-do cx-activate-tab-index "Fluid*Frame2*Table3*Frame1" 0)
(cx-gui-do cx-activate-tab-index "Fluid*Frame2*Table3*Frame1" 2)
(cx-gui-do cx-activate-tab-index "Fluid*Frame2*Table3*Frame1" 0)
(cx-gui-do cx-activate-tab-index "Fluid*Frame2*Table3*Frame1" 2)
(cx-gui-do cx-activate-tab-index "Fluid*Frame2*Table3*Frame1" 0)
(cx-gui-do cx-activate-tab-index "Fluid*Frame2*Table3*Frame1" 3)
(cx-gui-do cx-activate-tab-index "Fluid*Frame2*Table3*Frame1" 0)
(cx-gui-do cx-activate-tab-index "Fluid*Frame2*Table3*Frame1" 4)
(cx-gui-do cx-activate-tab-index "Fluid*Frame2*Table3*Frame1" 0)
(cx-gui-do cx-activate-tab-index "Fluid*Frame2*Table3*Frame1" 5)
(cx-gui-do cx-activate-tab-index "Fluid*Frame2*Table3*Frame1" 0)
(cx-gui-do cx-activate-tab-index "Fluid*Frame2*Table3*Frame1" 6)
(cx-gui-do cx-activate-tab-index "Fluid*Frame2*Table3*Frame1" 0)
(cx-gui-do cx-activate-tab-index "Fluid*Frame2*Table3*Frame1" 7)
(cx-gui-do cx-activate-tab-index "Fluid*Frame2*Table3*Frame1" 0)
(cx-gui-do cx-activate-tab-index "Fluid*Frame2*Table3*Frame1" 8)
(cx-gui-do cx-activate-tab-index "Fluid*Frame2*Table3*Frame1" 0)
(cx-gui-do cx-activate-tab-index "Fluid*Frame2*Table3*Frame1" 9)
(cx-gui-do cx-activate-tab-index "Fluid*Frame2*Table3*Frame1" 0)
(cx-gui-do cx-set-list-selections "Fluid*Frame2*Table1*Table1*DropDownList1(Material Name)" '( 0))
(cx-gui-do cx-enable-apply-button "Fluid")
(cx-gui-do cx-activate-item "Fluid*Frame2*Table1*Table1*DropDownList1(Material Name)")
(cx-gui-do cx-activate-item "Fluid*PanelButtons*PushButton1(OK)")
(cx-gui-do cx-activate-item "Fluid*PanelButtons*PushButton2(Cancel)")
(cx-gui-do cx-set-list-tree-selections "NavigationPane*Frame2*Table1*List_Tree2" (list "Setup|Materials|Fluid|air"))
(cx-gui-do cx-list-tree-right-click "NavigationPane*Frame2*Table1*List_Tree2" )
(cx-gui-do cx-activate-item "MenuBar*PopupMenuTree-air*Delete")
(cx-gui-do cx-activate-item "Question*OK")
(cx-gui-do cx-set-list-tree-selections "NavigationPane*Frame2*Table1*List_Tree2" (list ))
(cx-gui-do cx-set-list-tree-selections "NavigationPane*Frame2*Table1*List_Tree2" (list "Setup|Boundary Conditions|Inlet|left (velocity-inlet, id=3)"))
(cx-gui-do cx-set-list-tree-selections "NavigationPane*Frame2*Table1*List_Tree2" (list "Setup|Boundary Conditions|Inlet|left (velocity-inlet, id=3)"))
(cx-gui-do cx-activate-item "NavigationPane*Frame2*Table1*List_Tree2")
(cx-gui-do cx-set-list-tree-selections "NavigationPane*Frame2*Table1*List_Tree2" (list "Setup|Boundary Conditions|Inlet|left (velocity-inlet, id=3)"))
(cx-gui-do cx-activate-tab-index "Velocity Inlet*Frame2*Frame2" 0)
(cx-gui-do cx-activate-tab-index "Velocity Inlet*Frame2*Frame2" 1)
(cx-gui-do cx-activate-tab-index "Velocity Inlet*Frame2*Frame2" 0)
(cx-gui-do cx-activate-tab-index "Velocity Inlet*Frame2*Frame2" 2)
(cx-gui-do cx-activate-tab-index "Velocity Inlet*Frame2*Frame2" 0)
(cx-gui-do cx-activate-tab-index "Velocity Inlet*Frame2*Frame2" 3)
(cx-gui-do cx-activate-tab-index "Velocity Inlet*Frame2*Frame2" 0)
(cx-gui-do cx-activate-tab-index "Velocity Inlet*Frame2*Frame2" 4)
(cx-gui-do cx-activate-tab-index "Velocity Inlet*Frame2*Frame2" 0)
(cx-gui-do cx-activate-tab-index "Velocity Inlet*Frame2*Frame2" 5)
(cx-gui-do cx-activate-tab-index "Velocity Inlet*Frame2*Frame2" 0)
(cx-gui-do cx-activate-tab-index "Velocity Inlet*Frame2*Frame2" 6)
(cx-gui-do cx-activate-tab-index "Velocity Inlet*Frame2*Frame2" 0)
(cx-gui-do cx-activate-tab-index "Velocity Inlet*Frame2*Frame2" 7)
(cx-gui-do cx-activate-tab-index "Velocity Inlet*Frame2*Frame2" 0)
(cx-gui-do cx-activate-tab-index "Velocity Inlet*Frame2*Frame2" 8)
(cx-gui-do cx-activate-tab-index "Velocity Inlet*Frame2*Frame2" 0)
(cx-gui-do cx-enable-apply-button "Velocity Inlet")
(cx-gui-do cx-set-expression-entry "Velocity Inlet*Frame2*Frame2*Frame1(Momentum)*Table1*Table9*ExpressionEntry1(Velocity Magnitude)" '("" . 0))
(cx-gui-do cx-set-expression-entry "Velocity Inlet*Frame2*Frame2*Frame1(Momentum)*Table1*Table9*ExpressionEntry1(Velocity Magnitude)" '("0.00961" . 0))
(cx-gui-do cx-set-expression-entry "Velocity Inlet*Frame2*Frame2*Frame1(Momentum)*Table1*Table9*ExpressionEntry1(Velocity Magnitude)" '("0.0090168" . 0))
(cx-gui-do cx-activate-item "Velocity Inlet*PanelButtons*PushButton1(OK)")
(cx-gui-do cx-activate-item "Velocity Inlet*PanelButtons*PushButton2(Cancel)")
(cx-gui-do cx-set-list-tree-selections "NavigationPane*Frame2*Table1*List_Tree2" (list "Setup|Boundary Conditions|Internal"))
(cx-gui-do cx-set-list-tree-selections "NavigationPane*Frame2*Table1*List_Tree2" (list "Setup|Reference Values"))
(cx-gui-do cx-set-list-tree-selections "NavigationPane*Frame2*Table1*List_Tree2" (list "Setup|Reference Values"))
(cx-gui-do cx-activate-item "NavigationPane*Frame2*Table1*List_Tree2")
(cx-gui-do cx-set-list-tree-selections "NavigationPane*Frame2*Table1*List_Tree2" (list "Setup|Reference Values"))
(cx-gui-do cx-set-list-selections "Reference Values*DropDownList1(Compute from)" '( 0))
(cx-gui-do cx-activate-item "Reference Values*DropDownList1(Compute from)")
(cx-gui-do cx-set-list-selections "Reference Values*DropDownList4(Reference Zone)" '( 1))
(cx-gui-do cx-activate-item "Reference Values*DropDownList4(Reference Zone)")
(cx-gui-do cx-set-list-tree-selections "NavigationPane*Frame2*Table1*List_Tree2" (list "Solution|Methods"))
(cx-gui-do cx-set-list-tree-selections "NavigationPane*Frame2*Table1*List_Tree2" (list "Solution|Methods"))
(cx-gui-do cx-activate-item "NavigationPane*Frame2*Table1*List_Tree2")
(cx-gui-do cx-set-list-tree-selections "NavigationPane*Frame2*Table1*List_Tree2" (list "Solution|Methods"))
(cx-gui-do cx-set-list-tree-selections "NavigationPane*Frame2*Table1*List_Tree2" (list "Solution|Report Definitions"))
(cx-gui-do cx-set-list-tree-selections "NavigationPane*Frame2*Table1*List_Tree2" (list "Solution|Report Definitions"))
(cx-gui-do cx-activate-item "NavigationPane*Frame2*Table1*List_Tree2")
(cx-gui-do cx-set-list-tree-selections "NavigationPane*Frame2*Table1*List_Tree2" (list "Solution|Report Definitions"))
(cx-gui-do cx-activate-item "Report Definitions*PanelButtons*PushButton1(Close)")
(cx-gui-do cx-set-list-tree-selections "NavigationPane*Frame2*Table1*List_Tree2" (list "Solution|Monitors|Residual"))
(cx-gui-do cx-set-list-tree-selections "NavigationPane*Frame2*Table1*List_Tree2" (list "Solution|Monitors|Residual"))
(cx-gui-do cx-activate-item "NavigationPane*Frame2*Table1*List_Tree2")
(cx-gui-do cx-set-list-tree-selections "NavigationPane*Frame2*Table1*List_Tree2" (list "Solution|Monitors|Residual"))
(cx-gui-do cx-set-real-entry-list "Residual Monitors*Table1*Table2*Table1*Table1(Equations)*RealEntry11" '( 1e-09))
(cx-gui-do cx-set-real-entry-list "Residual Monitors*Table1*Table2*Table1*Table1(Equations)*RealEntry17" '( 1e-09))
(cx-gui-do cx-set-real-entry-list "Residual Monitors*Table1*Table2*Table1*Table1(Equations)*RealEntry23" '( 1e-09))
(cx-gui-do cx-activate-item "Residual Monitors*PanelButtons*PushButton1(OK)")
(cx-gui-do cx-set-list-tree-selections "NavigationPane*Frame2*Table1*List_Tree2" (list "Solution|Cell Registers"))
(cx-gui-do cx-set-list-tree-selections "NavigationPane*Frame2*Table1*List_Tree2" (list "Solution|Cell Registers"))
(cx-gui-do cx-activate-item "NavigationPane*Frame2*Table1*List_Tree2")
(cx-gui-do cx-set-list-tree-selections "NavigationPane*Frame2*Table1*List_Tree2" (list "Solution|Cell Registers"))
(cx-gui-do cx-activate-item "Manage Cell Registers*PanelButtons*PushButton1(Close)")
(cx-gui-do cx-set-list-tree-selections "NavigationPane*Frame2*Table1*List_Tree2" (list "Solution|Initialization"))
(cx-gui-do cx-set-list-tree-selections "NavigationPane*Frame2*Table1*List_Tree2" (list "Solution|Initialization"))
(cx-gui-do cx-set-list-tree-selections "NavigationPane*Frame2*Table1*List_Tree2" (list "Solution|Initialization"))
(cx-gui-do cx-activate-item "NavigationPane*Frame2*Table1*List_Tree2")
(cx-gui-do cx-set-list-tree-selections "NavigationPane*Frame2*Table1*List_Tree2" (list "Solution|Initialization"))
(cx-gui-do cx-set-list-tree-selections "NavigationPane*Frame2*Table1*List_Tree2" (list "Setup|Reference Values"))
(cx-gui-do cx-set-list-tree-selections "NavigationPane*Frame2*Table1*List_Tree2" (list "Setup|Reference Values"))
(cx-gui-do cx-activate-item "NavigationPane*Frame2*Table1*List_Tree2")
(cx-gui-do cx-set-list-tree-selections "NavigationPane*Frame2*Table1*List_Tree2" (list "Setup|Reference Values"))
(cx-gui-do cx-set-list-tree-selections "NavigationPane*Frame2*Table1*List_Tree2" (list "Solution|Initialization"))
(cx-gui-do cx-set-list-tree-selections "NavigationPane*Frame2*Table1*List_Tree2" (list "Solution|Initialization"))
(cx-gui-do cx-activate-item "NavigationPane*Frame2*Table1*List_Tree2")
(cx-gui-do cx-set-list-tree-selections "NavigationPane*Frame2*Table1*List_Tree2" (list "Solution|Initialization"))
(cx-gui-do cx-set-toggle-button2 "Solution Initialization*Table1*ToggleBox3(Initialization Methods)*Standard Initialization" #t)
(cx-gui-do cx-activate-item "Solution Initialization*Table1*ToggleBox3(Initialization Methods)*Standard Initialization")
(cx-gui-do cx-set-real-entry-list "Solution Initialization*Table1*Table7(Initial Values)*RealEntry1(Gauge Pressure)" '( 0))
(cx-gui-do cx-activate-item "Solution Initialization*Table1*Table7(Initial Values)*RealEntry1(Gauge Pressure)")
(cx-gui-do cx-set-list-selections "Solution Initialization*Table1*DropDownList1(Compute from)" '( 1))
(cx-gui-do cx-activate-item "Solution Initialization*Table1*DropDownList1(Compute from)")
(cx-gui-do cx-activate-item "Solution Initialization*Table1*Frame9*PushButton1(Initialize)")
(cx-gui-do cx-set-list-tree-selections "NavigationPane*Frame2*Table1*List_Tree2" (list "Solution|Run Calculation"))
(cx-gui-do cx-set-list-tree-selections "NavigationPane*Frame2*Table1*List_Tree2" (list "Solution|Run Calculation"))
(cx-gui-do cx-set-list-tree-selections "NavigationPane*Frame2*Table1*List_Tree2" (list "Solution|Run Calculation"))
(cx-gui-do cx-activate-item "NavigationPane*Frame2*Table1*List_Tree2")
(cx-gui-do cx-set-list-tree-selections "NavigationPane*Frame2*Table1*List_Tree2" (list "Solution|Run Calculation"))
(cx-gui-do cx-set-integer-entry "Run Calculation*Table1*Table3(Parameters)*Table1*Table1*IntegerEntry1(Number of Iterations)" 1000)
(cx-gui-do cx-activate-item "Run Calculation*Table1*Table3(Parameters)*Table1*Table1*IntegerEntry1(Number of Iterations)")
(cx-gui-do cx-activate-item "Run Calculation*Table1*Table6(Solution Advancement)*Table1*PushButton3(Calculate)")


  iter  continuity  x-velocity  y-velocity     time/iter
     1  0.0000e+00  6.9103e-04  0.0000e+00  0:00:53  999
     2  1.0000e+00  7.6459e-04  2.9152e-05  0:01:20  998
     3  1.0000e+00  7.6523e-04  1.4982e-05  0:01:11  997
     4  1.0000e+00  7.2522e-04  1.5553e-05  0:01:04  996
     5  1.0000e+00  6.6958e-04  1.3949e-05  0:00:57  995
     6  9.9575e-01  6.0948e-04  1.1736e-05  0:00:52  994
     7  9.5503e-01  5.5044e-04  9.5891e-06  0:00:49  993
     8  9.2121e-01  4.9577e-04  7.9618e-06  0:00:46  992
     9  8.7462e-01  4.5010e-04  6.5443e-06  0:00:43  991
    10  8.1661e-01  4.1544e-04  5.4240e-06  0:00:41  990
    11  7.5224e-01  3.8475e-04  4.4150e-06  0:00:39  989

  iter  continuity  x-velocity  y-velocity     time/iter
    12  6.9997e-01  3.5657e-04  3.7634e-06  0:00:37  988
    13  6.5617e-01  3.3070e-04  3.4663e-06  0:00:37  987
    14  6.3193e-01  3.0707e-04  3.3768e-06  0:00:36  986
    15  6.1328e-01  2.8545e-04  3.2535e-06  0:00:36  985
    16  5.9109e-01  2.6560e-04  3.0334e-06  0:00:36  984
    17  5.7086e-01  2.4717e-04  2.8332e-06  0:00:35  983
    18  5.4447e-01  2.3019e-04  2.3631e-06  0:00:35  982
    19  5.2652e-01  2.1454e-04  2.1203e-06  0:00:35  981
    20  5.1208e-01  1.9994e-04  1.9707e-06  0:00:35  980
    21  5.0382e-01  1.8640e-04  1.8203e-06  0:00:35  979
    22  4.9388e-01  1.7368e-04  1.6417e-06  0:00:34  978

  iter  continuity  x-velocity  y-velocity     time/iter
    23  4.9002e-01  1.6191e-04  1.6561e-06  0:00:34  977
    24  4.7580e-01  1.5100e-04  1.4102e-06  0:00:34  976
    25  4.6583e-01  1.4082e-04  1.3036e-06  0:00:33  975
    26  4.6146e-01  1.3125e-04  1.3913e-06  0:01:04  974
    27  4.5190e-01  1.2236e-04  1.4336e-06  0:00:57  973
    28  4.4097e-01  1.1398e-04  1.3934e-06  0:00:52  972
    29  4.2813e-01  1.0624e-04  1.1912e-06  0:00:48  971
    30  4.1732e-01  9.8946e-05  1.1143e-06  0:00:45  970
    31  4.0659e-01  9.2098e-05  1.0662e-06  0:00:42  969
    32  3.9604e-01  8.5644e-05  1.1010e-06  0:00:40  968
    33  3.8301e-01  7.9713e-05  1.1283e-06  0:00:38  967

  iter  continuity  x-velocity  y-velocity     time/iter
    34  3.7090e-01  7.4156e-05  1.1141e-06  0:00:37  966
    35  3.5953e-01  6.8953e-05  1.0830e-06  0:00:36  965
    36  3.4878e-01  6.4081e-05  1.0408e-06  0:00:35  964
    37  3.3744e-01  5.9518e-05  9.7959e-07  0:00:35  963
    38  3.2682e-01  5.5268e-05  9.6294e-07  0:00:34  962
    39  3.1498e-01  5.1308e-05  9.4487e-07  0:00:34  961
    40  3.0410e-01  4.7617e-05  9.2755e-07  0:00:33  960
    41  2.9386e-01  4.4168e-05  8.9788e-07  0:00:33  959
    42  2.8387e-01  4.0949e-05  8.7239e-07  0:00:32  958
    43  2.7388e-01  3.7943e-05  8.4308e-07  0:00:32  957
    44  2.6430e-01  3.5136e-05  8.0966e-07  0:00:32  956

  iter  continuity  x-velocity  y-velocity     time/iter
    45  2.5506e-01  3.2517e-05  7.8109e-07  0:00:31  955
    46  2.4598e-01  3.0076e-05  7.5244e-07  0:00:31  954
    47  2.3706e-01  2.7805e-05  7.2800e-07  0:00:31  953
    48  2.2847e-01  2.5689e-05  7.0691e-07  0:00:31  952
    49  2.2004e-01  2.3717e-05  6.8976e-07  0:00:31  951
    50  2.1167e-01  2.1883e-05  6.6913e-07  0:00:30  950
    51  2.0339e-01  2.0180e-05  6.4837e-07  0:00:31  949
    52  1.9534e-01  1.8594e-05  6.2664e-07  0:00:30  948
    53  1.8744e-01  1.7120e-05  6.0545e-07  0:00:31  947
    54  1.7972e-01  1.5752e-05  5.8892e-07  0:00:30  946
    55  1.7217e-01  1.4483e-05  5.6839e-07  0:00:30  945

  iter  continuity  x-velocity  y-velocity     time/iter
    56  1.6481e-01  1.3307e-05  5.5243e-07  0:00:30  944
    57  1.5766e-01  1.2219e-05  5.3341e-07  0:00:30  943
    58  1.5069e-01  1.1212e-05  5.1580e-07  0:00:30  942
    59  1.4392e-01  1.0282e-05  5.0094e-07  0:00:30  941
    60  1.3735e-01  9.4231e-06  4.8344e-07  0:00:30  940
    61  1.3101e-01  8.6300e-06  4.6685e-07  0:00:30  939
    62  1.2492e-01  7.8994e-06  4.4910e-07  0:00:30  938
    63  1.1900e-01  7.2266e-06  4.3416e-07  0:00:30  937
    64  1.1330e-01  6.6074e-06  4.1920e-07  0:00:29  936
    65  1.0786e-01  6.0381e-06  4.0259e-07  0:00:29  935
    66  1.0261e-01  5.5150e-06  3.8441e-07  0:00:30  934

  iter  continuity  x-velocity  y-velocity     time/iter
    67  9.7544e-02  5.0348e-06  3.7258e-07  0:00:30  933
    68  9.2723e-02  4.5950e-06  3.5770e-07  0:00:30  932
    69  8.8093e-02  4.1927e-06  3.4139e-07  0:00:30  931
    70  8.3645e-02  3.8244e-06  3.2744e-07  0:00:30  930
    71  7.9440e-02  3.4875e-06  3.1542e-07  0:00:30  929
    72  7.5405e-02  3.1796e-06  3.0024e-07  0:00:30  928
    73  7.1532e-02  2.8982e-06  2.8730e-07  0:00:30  927
    74  6.7854e-02  2.6414e-06  2.7946e-07  0:00:30  926
    75  6.4301e-02  2.4069e-06  2.6733e-07  0:00:29  925
    76  6.0898e-02  2.1931e-06  2.5446e-07  0:00:29  924
    77  5.7677e-02  1.9981e-06  2.4499e-07  0:00:29  923

  iter  continuity  x-velocity  y-velocity     time/iter
    78  5.4586e-02  1.8203e-06  2.3412e-07  0:00:29  922
    79  5.1599e-02  1.6598e-06  2.2156e-07  0:00:29  921
    80  4.8828e-02  1.5113e-06  2.1345e-07  0:00:29  920
    81  4.6167e-02  1.3768e-06  2.0550e-07  0:00:29  919
    82  4.3664e-02  1.2545e-06  1.9477e-07  0:01:39  918
    83  4.1273e-02  1.1436e-06  1.8660e-07  0:01:24  917
    84  3.8943e-02  1.0432e-06  1.7868e-07  0:01:13  916
    85  3.6764e-02  9.5185e-07  1.6864e-07  0:01:04  915
    86  3.4692e-02  8.6914e-07  1.6140e-07  0:00:57  914
    87  3.2691e-02  7.9316e-07  1.5388e-07  0:00:51  913
    88  3.0834e-02  7.2424e-07  1.4503e-07  0:00:46  912

  iter  continuity  x-velocity  y-velocity     time/iter
    89  2.9072e-02  6.6243e-07  1.3895e-07  0:00:42  911
    90  2.7398e-02  6.0468e-07  1.3211e-07  0:00:39  910
    91  2.5847e-02  5.5317e-07  1.2534e-07  0:00:37  909
    92  2.4408e-02  5.0711e-07  1.1986e-07  0:00:35  908
    93  2.3050e-02  4.6404e-07  1.1397e-07  0:00:33  907
    94  2.1782e-02  4.2696e-07  1.0958e-07  0:00:32  906
    95  2.0587e-02  3.9191e-07  1.0614e-07  0:00:31  905
    96  1.9473e-02  3.5989e-07  1.0213e-07  0:00:30  904
    97  1.8429e-02  3.3279e-07  9.9834e-08  0:00:29  903
    98  1.7464e-02  3.0554e-07  9.7152e-08  0:00:28  902
    99  1.6495e-02  2.8383e-07  9.5165e-08  0:00:28  901

  iter  continuity  x-velocity  y-velocity     time/iter
   100  1.5537e-02  2.6124e-07  9.3599e-08  0:00:28  900
   101  1.4636e-02  2.4278e-07  8.7709e-08  0:00:28  899
   102  1.3819e-02  2.2408e-07  8.5124e-08  0:00:28  898
   103  1.3033e-02  2.0857e-07  7.9964e-08  0:00:29  897
   104  1.2338e-02  1.9247e-07  7.6157e-08  0:00:28  896
   105  1.2095e-02  1.7456e-07  7.0852e-08  0:00:28  895
   106  1.2357e-02  1.6322e-07  6.5895e-08  0:00:28  894
   107  1.1747e-02  1.6304e-07  7.0097e-08  0:00:27  893
   108  1.1016e-02  1.5406e-07  6.7311e-08  0:00:28  892
   109  1.0397e-02  1.4093e-07  5.9313e-08  0:00:27  891
   110  9.8280e-03  1.2966e-07  4.8102e-08  0:00:27  890

  iter  continuity  x-velocity  y-velocity     time/iter
   111  9.2762e-03  1.1972e-07  4.4361e-08  0:00:27  889
   112  8.7879e-03  1.1235e-07  3.7249e-08  0:00:27  888
   113  8.3428e-03  1.1338e-07  3.7230e-08  0:00:27  887
   114  8.4086e-03  1.0894e-07  3.6355e-08  0:00:26  886
   115  8.3294e-03  1.0567e-07  3.4696e-08  0:00:26  885
   116  7.3654e-03  9.3785e-08  3.5139e-08  0:00:26  884
   117  6.2507e-03  7.9171e-08  3.2204e-08  0:00:26  883
   118  5.6625e-03  7.2298e-08  2.8602e-08  0:00:26  882
   119  5.3338e-03  7.2988e-08  2.6311e-08  0:00:26  881
   120  5.1396e-03  7.4783e-08  2.5227e-08  0:00:26  880
   121  4.9739e-03  7.7743e-08  2.4165e-08  0:00:27  879

  iter  continuity  x-velocity  y-velocity     time/iter
   122  4.6953e-03  7.4543e-08  2.3000e-08  0:00:26  878
   123  4.3607e-03  6.8091e-08  2.2010e-08  0:00:26  877
   124  3.9801e-03  6.2524e-08  1.9950e-08  0:00:26  876
   125  3.6707e-03  5.8736e-08  1.8051e-08  0:00:26  875
   126  3.5011e-03  5.3780e-08  1.6374e-08  0:00:26  874
   127  3.3141e-03  4.7607e-08  1.5123e-08  0:00:26  873
   128  3.1137e-03  4.1815e-08  1.4468e-08  0:00:26  872
   129  2.9388e-03  3.6914e-08  1.3735e-08  0:00:26  871
   130  2.7983e-03  3.3283e-08  1.2946e-08  0:00:26  870
   131  2.6557e-03  3.0751e-08  1.2241e-08  0:00:26  869
   132  2.5117e-03  2.8521e-08  1.1550e-08  0:00:26  868

  iter  continuity  x-velocity  y-velocity     time/iter
   133  2.3715e-03  2.6583e-08  1.0942e-08  0:00:26  867
   134  2.2405e-03  2.4931e-08  1.0349e-08  0:00:26  866
   135  2.1160e-03  2.3524e-08  9.7920e-09  0:00:27  865
   136  2.0003e-03  2.2185e-08  9.2743e-09  0:00:27  864
   137  1.8914e-03  2.0917e-08  8.7933e-09  0:00:26  863
   138  1.7875e-03  1.9727e-08  8.3444e-09  0:00:26  862
   139  1.6885e-03  1.8604e-08  7.9195e-09  0:00:26  861
   140  1.5950e-03  1.7543e-08  7.5141e-09  0:00:26  860
   141  1.5059e-03  1.6542e-08  7.1257e-09  0:00:26  859
   142  1.4215e-03  1.5597e-08  6.7532e-09  0:00:26  858
   143  1.3408e-03  1.4705e-08  6.3964e-09  0:00:25  857

  iter  continuity  x-velocity  y-velocity     time/iter
   144  1.2652e-03  1.3862e-08  6.0541e-09  0:00:25  856
   145  1.1937e-03  1.3066e-08  5.7257e-09  0:00:26  855
   146  1.1261e-03  1.2315e-08  5.3952e-09  0:00:26  854
   147  1.0622e-03  1.1605e-08  5.0832e-09  0:00:26  853
   148  1.0019e-03  1.0936e-08  4.7913e-09  0:00:25  852
   149  9.4483e-04  1.0305e-08  4.5183e-09  0:00:25  851
   150  8.9083e-04  9.7098e-09  4.2618e-09  0:00:25  850
   151  8.3967e-04  9.1481e-09  4.0190e-09  0:00:25  849
   152  7.9126e-04  8.6183e-09  3.7885e-09  0:00:25  848
   153  7.4569e-04  8.1187e-09  3.5683e-09  0:00:25  847
   154  7.0280e-04  7.6476e-09  3.3576e-09  0:00:25  846

  iter  continuity  x-velocity  y-velocity     time/iter
   155  6.6224e-04  7.2033e-09  3.1613e-09  0:00:26  845
   156  6.2390e-04  6.7841e-09  2.9779e-09  0:00:25  844
   157  5.8770e-04  6.3890e-09  2.8058e-09  0:00:25  843
   158  5.5353e-04  6.0166e-09  2.6441e-09  0:00:26  842
   159  5.2130e-04  5.6656e-09  2.4917e-09  0:00:26  841
   160  4.9090e-04  5.3350e-09  2.3480e-09  0:00:26  840
   161  4.6224e-04  5.0237e-09  2.2123e-09  0:00:26  839
   162  4.3523e-04  4.7305e-09  2.0841e-09  0:00:26  838
   163  4.0976e-04  4.4545e-09  1.9632e-09  0:00:26  837
   164  3.8577e-04  4.1947e-09  1.8490e-09  0:00:26  836
   165  3.6317e-04  3.9501e-09  1.7412e-09  0:00:26  835

  iter  continuity  x-velocity  y-velocity     time/iter
   166  3.4187e-04  3.7197e-09  1.6396e-09  0:00:26  834
   167  3.2181e-04  3.5028e-09  1.5438e-09  0:00:26  833
   168  3.0292e-04  3.2986e-09  1.4534e-09  0:00:26  832
   169  2.8513e-04  3.1063e-09  1.3683e-09  0:00:26  831
   170  2.6838e-04  2.9252e-09  1.2880e-09  0:00:25  830
   171  2.5284e-04  2.7547e-09  1.2124e-09  0:00:25  829
   172  2.3823e-04  2.5941e-09  1.1461e-09  0:00:25  828
   173  2.2439e-04  2.4429e-09  1.0816e-09  0:00:25  827
   174  2.1132e-04  2.3005e-09  1.0196e-09  0:00:25  826
   175  1.9919e-04  2.1666e-09  9.6103e-10  0:00:25  825
   176  1.8773e-04  2.0406e-09  9.0918e-10  0:00:25  824

  iter  continuity  x-velocity  y-velocity     time/iter
   177  1.7685e-04  1.9217e-09  8.5832e-10  0:00:25  823
   178  1.6655e-04  1.8097e-09  8.0939e-10  0:00:25  822
   179  1.5681e-04  1.7042e-09  7.6279e-10  0:00:25  821
   180  1.4698e-04  1.6049e-09  7.1859e-10  0:00:24  820
   181  1.3762e-04  1.5102e-09  6.7359e-10  0:00:24  819
   182  1.2876e-04  1.4195e-09  6.2991e-10  0:00:25  818
   183  1.2039e-04  1.3325e-09  5.8825e-10  0:00:25  817
   184  1.1253e-04  1.2497e-09  5.4884e-10  0:00:25  816
   185  1.0481e-04  1.1713e-09  5.1162e-10  0:00:25  815
   186  9.7417e-05  1.0971e-09  4.7454e-10  0:00:26  814
   187  9.0506e-05  1.0292e-09  4.3861e-10  0:00:25  813

  iter  continuity  x-velocity  y-velocity     time/iter
   188  8.4084e-05  9.6638e-10  4.0452e-10  0:00:25  812
   189  7.8165e-05  9.0713e-10  3.7449e-10  0:00:25  811
   190  7.2709e-05  8.5150e-10  3.4734e-10  0:00:25  810
   191  6.7670e-05  7.9932e-10  3.2223e-10  0:00:25  809
   192  6.3019e-05  7.5163e-10  2.9884e-10  0:00:24  808
   193  5.8777e-05  7.0723e-10  2.7716e-10  0:00:24  807
   194  5.4881e-05  6.6560e-10  2.5783e-10  0:00:25  806
   195  5.1293e-05  6.2717e-10  2.4112e-10  0:00:24  805
   196  4.7995e-05  5.9226e-10  2.2588e-10  0:00:24  804
   197  4.4941e-05  5.5954e-10  2.1169e-10  0:00:24  803
   198  4.2115e-05  5.2886e-10  1.9916e-10  0:00:24  802

  iter  continuity  x-velocity  y-velocity     time/iter
   199  3.9498e-05  5.0003e-10  1.8762e-10  0:00:24  801
   200  3.7073e-05  4.7338e-10  1.7679e-10  0:00:24  800
   201  3.4823e-05  4.4829e-10  1.6659e-10  0:00:24  799
   202  3.2734e-05  4.2455e-10  1.5701e-10  0:00:24  798
   203  3.0792e-05  4.0208e-10  1.4805e-10  0:00:25  797
   204  2.8985e-05  3.8084e-10  1.3963e-10  0:00:24  796
   205  2.7300e-05  3.6076e-10  1.3172e-10  0:00:25  795
   206  2.5727e-05  3.4181e-10  1.2427e-10  0:00:24  794
   207  2.4257e-05  3.2390e-10  1.1727e-10  0:00:24  793
   208  2.2885e-05  3.0700e-10  1.1069e-10  0:00:24  792
   209  2.1600e-05  2.9106e-10  1.0451e-10  0:00:24  791

  iter  continuity  x-velocity  y-velocity     time/iter
   210  2.0395e-05  2.7604e-10  9.8699e-11  0:00:24  790
   211  1.9264e-05  2.6188e-10  9.3245e-11  0:00:24  789
   212  1.8200e-05  2.4853e-10  8.8125e-11  0:01:21  788
   213  1.7199e-05  2.3594e-10  8.3321e-11  0:01:09  787
   214  1.6258e-05  2.2411e-10  7.8808e-11  0:01:00  786
   215  1.5372e-05  2.1296e-10  7.4573e-11  0:00:53  785
   216  1.4539e-05  2.0246e-10  7.0600e-11  0:00:47  784
   217  1.3752e-05  1.9259e-10  6.6865e-11  0:00:42  783
   218  1.3009e-05  1.8332e-10  6.3358e-11  0:00:38  782
   219  1.2308e-05  1.7460e-10  6.0062e-11  0:00:35  781
   220  1.1646e-05  1.6639e-10  5.6963e-11  0:00:32  780

  iter  continuity  x-velocity  y-velocity     time/iter
   221  1.1021e-05  1.5867e-10  5.4051e-11  0:00:31  779
   222  1.0430e-05  1.5143e-10  5.1323e-11  0:00:30  778
   223  9.8730e-06  1.4461e-10  4.8755e-11  0:00:28  777
   224  9.3470e-06  1.3822e-10  4.6339e-11  0:00:27  776
   225  8.8500e-06  1.3220e-10  4.4072e-11  0:00:27  775
   226  8.3808e-06  1.2656e-10  4.1940e-11  0:00:26  774
   227  7.9376e-06  1.2124e-10  3.9934e-11  0:00:26  773
   228  7.5202e-06  1.1624e-10  3.8054e-11  0:00:25  772
   229  7.1446e-06  1.1156e-10  3.6282e-11  0:00:25  771
   230  6.7902e-06  1.0715e-10  3.4613e-11  0:00:25  770
   231  6.4559e-06  1.0298e-10  3.3039e-11  0:00:24  769

  iter  continuity  x-velocity  y-velocity     time/iter
   232  6.1404e-06  9.9092e-11  3.1560e-11  0:00:24  768
   233  5.8425e-06  9.5434e-11  3.0170e-11  0:00:24  767
   234  5.5610e-06  9.1975e-11  2.8858e-11  0:00:24  766
   235  5.2952e-06  8.8700e-11  2.7619e-11  0:00:24  765
   236  5.0442e-06  8.5638e-11  2.6447e-11  0:00:24  764
   237  4.8099e-06  8.2746e-11  2.5340e-11  0:00:24  763
   238  4.6107e-06  8.0033e-11  2.4293e-11  0:00:24  762
   239  4.4223e-06  7.7501e-11  2.3303e-11  0:00:24  761
   240  4.2442e-06  7.5123e-11  2.2366e-11  0:00:23  760
   241  4.0759e-06  7.2883e-11  2.1481e-11  0:00:23  759
   242  3.9167e-06  7.0791e-11  2.0643e-11  0:00:23  758

  iter  continuity  x-velocity  y-velocity     time/iter
   243  3.7663e-06  6.8833e-11  1.9851e-11  0:00:23  757
   244  3.6240e-06  6.6990e-11  1.9102e-11  0:00:23  756
   245  3.4896e-06  6.5263e-11  1.8393e-11  0:00:23  755
   246  3.3790e-06  6.3665e-11  1.7722e-11  0:00:23  754
   247  3.2893e-06  6.2152e-11  1.7095e-11  0:00:40  753
   248  3.2038e-06  6.0720e-11  1.6503e-11  0:00:37  752
   249  3.1225e-06  5.9367e-11  1.5943e-11  0:00:34  751
   250  3.0451e-06  5.8088e-11  1.5412e-11  0:00:32  750
   251  2.9714e-06  5.6920e-11  1.4911e-11  0:00:31  749
   252  2.9013e-06  5.5869e-11  1.4437e-11  0:00:29  748
   253  2.8346e-06  5.4900e-11  1.3989e-11  0:00:28  747

  iter  continuity  x-velocity  y-velocity     time/iter
   254  2.7710e-06  5.3970e-11  1.3566e-11  0:00:27  746
   255  2.7103e-06  5.3119e-11  1.3165e-11  0:00:27  745
   256  2.6524e-06  5.2304e-11  1.2788e-11  0:00:27  744
   257  2.5969e-06  5.1560e-11  1.2439e-11  0:00:26  743
   258  2.5439e-06  5.0879e-11  1.2118e-11  0:00:26  742
   259  2.4931e-06  5.0216e-11  1.1819e-11  0:00:25  741
   260  2.4444e-06  4.9573e-11  1.1539e-11  0:00:25  740
   261  2.3978e-06  4.8946e-11  1.1274e-11  0:00:24  739
   262  2.3533e-06  4.8338e-11  1.1020e-11  0:00:24  738
   263  2.3106e-06  4.7745e-11  1.0779e-11  0:00:24  737
   264  2.2697e-06  4.7168e-11  1.0549e-11  0:00:24  736

  iter  continuity  x-velocity  y-velocity     time/iter
   265  2.2303e-06  4.6620e-11  1.0329e-11  0:00:24  735
   266  2.1924e-06  4.6137e-11  1.0121e-11  0:00:24  734
   267  2.1559e-06  4.5662e-11  9.9277e-12  0:00:23  733
   268  2.1207e-06  4.5197e-11  9.7422e-12  0:00:23  732
   269  2.0869e-06  4.4741e-11  9.5640e-12  0:00:23  731
   270  2.0568e-06  4.4292e-11  9.3927e-12  0:00:22  730
   271  2.0301e-06  4.3851e-11  9.2313e-12  0:00:22  729
   272  2.0042e-06  4.3445e-11  9.0774e-12  0:00:22  728
   273  1.9789e-06  4.3048e-11  8.9297e-12  0:00:22  727
   274  1.9544e-06  4.2657e-11  8.7895e-12  0:00:22  726
   275  1.9305e-06  4.2270e-11  8.6619e-12  0:00:22  725

  iter  continuity  x-velocity  y-velocity     time/iter
   276  1.9072e-06  4.1888e-11  8.5387e-12  0:00:22  724
   277  1.8845e-06  4.1510e-11  8.4197e-12  0:00:22  723
   278  1.8623e-06  4.1138e-11  8.3045e-12  0:00:21  722
   279  1.8408e-06  4.0769e-11  8.1931e-12  0:00:22  721
   280  1.8201e-06  4.0404e-11  8.0849e-12  0:00:22  720
   281  1.7999e-06  4.0044e-11  7.9798e-12  0:00:23  719
   282  1.7801e-06  3.9687e-11  7.8776e-12  0:00:23  718
   283  1.7608e-06  3.9335e-11  7.7782e-12  0:00:23  717
   284  1.7419e-06  3.8987e-11  7.6815e-12  0:00:22  716
   285  1.7233e-06  3.8643e-11  7.5874e-12  0:00:23  715
   286  1.7051e-06  3.8303e-11  7.4957e-12  0:00:22  714

  iter  continuity  x-velocity  y-velocity     time/iter
   287  1.6873e-06  3.7966e-11  7.4066e-12  0:00:22  713
   288  1.6698e-06  3.7633e-11  7.3316e-12  0:00:22  712
   289  1.6526e-06  3.7302e-11  7.2579e-12  0:00:22  711
   290  1.6358e-06  3.6975e-11  7.1855e-12  0:00:22  710
   291  1.6192e-06  3.6652e-11  7.1143e-12  0:00:22  709
   292  1.6030e-06  3.6331e-11  7.0443e-12  0:00:22  708
   293  1.5870e-06  3.6013e-11  6.9755e-12  0:00:22  707
   294  1.5713e-06  3.5699e-11  6.9077e-12  0:00:22  706
   295  1.5558e-06  3.5387e-11  6.8414e-12  0:00:22  705
   296  1.5406e-06  3.5079e-11  6.7761e-12  0:00:23  704
   297  1.5256e-06  3.4773e-11  6.7117e-12  0:00:23  703

  iter  continuity  x-velocity  y-velocity     time/iter
   298  1.5109e-06  3.4470e-11  6.6483e-12  0:00:22  702
   299  1.4964e-06  3.4170e-11  6.5857e-12  0:00:22  701
   300  1.4820e-06  3.3873e-11  6.5239e-12  0:00:22  700
   301  1.4679e-06  3.3579e-11  6.4630e-12  0:00:22  699
   302  1.4540e-06  3.3287e-11  6.4029e-12  0:00:22  698
   303  1.4404e-06  3.2999e-11  6.3437e-12  0:00:22  697
   304  1.4269e-06  3.2712e-11  6.2851e-12  0:00:22  696
   305  1.4137e-06  3.2429e-11  6.2274e-12  0:00:21  695
   306  1.4006e-06  3.2148e-11  6.1703e-12  0:00:21  694
   307  1.3876e-06  3.1869e-11  6.1141e-12  0:00:21  693
   308  1.3749e-06  3.1593e-11  6.0584e-12  0:00:21  692

  iter  continuity  x-velocity  y-velocity     time/iter
   309  1.3623e-06  3.1320e-11  6.0035e-12  0:00:21  691
   310  1.3498e-06  3.1049e-11  5.9492e-12  0:00:21  690
   311  1.3377e-06  3.0780e-11  5.8955e-12  0:00:21  689
   312  1.3262e-06  3.0515e-11  5.8424e-12  0:00:21  688
   313  1.3147e-06  3.0253e-11  5.7899e-12  0:00:21  687
   314  1.3034e-06  2.9992e-11  5.7380e-12  0:00:20  686
   315  1.2922e-06  2.9734e-11  5.6866e-12  0:00:20  685
   316  1.2810e-06  2.9478e-11  5.6358e-12  0:00:20  684
   317  1.2700e-06  2.9224e-11  5.5856e-12  0:00:20  683
   318  1.2590e-06  2.8973e-11  5.5366e-12  0:00:21  682
   319  1.2482e-06  2.8724e-11  5.4885e-12  0:00:21  681

  iter  continuity  x-velocity  y-velocity     time/iter
   320  1.2374e-06  2.8476e-11  5.4408e-12  0:00:22  680
   321  1.2268e-06  2.8231e-11  5.3936e-12  0:00:22  679
   322  1.2162e-06  2.7989e-11  5.3468e-12  0:00:21  678
   323  1.2051e-06  2.7748e-11  5.3005e-12  0:00:21  677
   324  1.1937e-06  2.7509e-11  5.2561e-12  0:00:21  676
   325  1.1853e-06  2.7272e-11  5.2144e-12  0:00:21  675
   326  1.1770e-06  2.7038e-11  5.1716e-12  0:00:20  674
   327  1.1684e-06  2.6806e-11  5.1285e-12  0:00:21  673
   328  1.1593e-06  2.6576e-11  5.0850e-12  0:00:21  672
   329  1.1500e-06  2.6348e-11  5.0419e-12  0:00:22  671
   330  1.1404e-06  2.6122e-11  4.9996e-12  0:00:22  670

  iter  continuity  x-velocity  y-velocity     time/iter
   331  1.1307e-06  2.5898e-11  4.9578e-12  0:00:22  669
   332  1.1210e-06  2.5675e-11  4.9160e-12  0:00:21  668
   333  1.1114e-06  2.5454e-11  4.8741e-12  0:00:21  667
   334  1.1018e-06  2.5235e-11  4.8325e-12  0:00:20  666
   335  1.0923e-06  2.5018e-11  4.7910e-12  0:00:20  665
   336  1.0829e-06  2.4803e-11  4.7498e-12  0:00:20  664
   337  1.0736e-06  2.4590e-11  4.7090e-12  0:00:20  663
   338  1.0644e-06  2.4378e-11  4.6684e-12  0:00:20  662
   339  1.0552e-06  2.4169e-11  4.6282e-12  0:00:20  661
   340  1.0461e-06  2.3961e-11  4.5884e-12  0:01:03  660
   341  1.0371e-06  2.3755e-11  4.5489e-12  0:00:55  659

  iter  continuity  x-velocity  y-velocity     time/iter
   342  1.0282e-06  2.3551e-11  4.5097e-12  0:00:48  658
   343  1.0194e-06  2.3349e-11  4.4708e-12  0:00:43  657
   344  1.0106e-06  2.3148e-11  4.4323e-12  0:00:39  656
   345  1.0019e-06  2.2949e-11  4.3941e-12  0:00:36  655
   346  9.9334e-07  2.2752e-11  4.3563e-12  0:00:33  654
   347  9.8480e-07  2.2557e-11  4.3188e-12  0:00:31  653
   348  9.7634e-07  2.2363e-11  4.2816e-12  0:00:29  652
   349  9.6796e-07  2.2171e-11  4.2447e-12  0:00:27  651
   350  9.5964e-07  2.1980e-11  4.2082e-12  0:00:26  650
   351  9.5140e-07  2.1792e-11  4.1720e-12  0:00:25  649
   352  9.4323e-07  2.1604e-11  4.1361e-12  0:00:25  648

  iter  continuity  x-velocity  y-velocity     time/iter
   353  9.3512e-07  2.1419e-11  4.1005e-12  0:00:23  647
   354  9.2709e-07  2.1235e-11  4.0652e-12  0:00:23  646
   355  9.1913e-07  2.1052e-11  4.0302e-12  0:00:22  645
   356  9.1123e-07  2.0871e-11  3.9956e-12  0:00:22  644
   357  9.0340e-07  2.0692e-11  3.9612e-12  0:00:21  643
   358  8.9564e-07  2.0514e-11  3.9271e-12  0:00:21  642
   359  8.8795e-07  2.0338e-11  3.8934e-12  0:00:21  641
   360  8.8032e-07  2.0163e-11  3.8599e-12  0:00:21  640
   361  8.7276e-07  1.9990e-11  3.8267e-12  0:00:21  639
   362  8.6527e-07  1.9819e-11  3.7938e-12  0:00:21  638
   363  8.5783e-07  1.9648e-11  3.7612e-12  0:00:21  637

  iter  continuity  x-velocity  y-velocity     time/iter
   364  8.5047e-07  1.9480e-11  3.7288e-12  0:00:20  636
   365  8.4316e-07  1.9312e-11  3.6968e-12  0:00:20  635
   366  8.3592e-07  1.9146e-11  3.6650e-12  0:00:21  634
   367  8.2874e-07  1.8982e-11  3.6335e-12  0:00:21  633
   368  8.2162e-07  1.8819e-11  3.6023e-12  0:00:21  632
   369  8.1456e-07  1.8657e-11  3.5713e-12  0:00:20  631
   370  8.0757e-07  1.8497e-11  3.5406e-12  0:00:20  630
   371  8.0063e-07  1.8338e-11  3.5102e-12  0:00:20  629
   372  7.9375e-07  1.8181e-11  3.4800e-12  0:00:19  628
   373  7.8694e-07  1.8024e-11  3.4501e-12  0:00:20  627
   374  7.8018e-07  1.7870e-11  3.4204e-12  0:00:20  626

  iter  continuity  x-velocity  y-velocity     time/iter
   375  7.7348e-07  1.7716e-11  3.3911e-12  0:00:19  625
   376  7.6683e-07  1.7564e-11  3.3619e-12  0:00:19  624
   377  7.6025e-07  1.7413e-11  3.3330e-12  0:00:19  623
   378  7.5372e-07  1.7263e-11  3.3044e-12  0:00:20  622
   379  7.4724e-07  1.7115e-11  3.2760e-12  0:00:20  621
   380  7.4083e-07  1.6968e-11  3.2478e-12  0:00:20  620
   381  7.3446e-07  1.6822e-11  3.2199e-12  0:00:20  619
   382  7.2815e-07  1.6678e-11  3.1923e-12  0:00:20  618
   383  7.2190e-07  1.6535e-11  3.1648e-12  0:00:19  617
   384  7.1570e-07  1.6393e-11  3.1376e-12  0:00:20  616
   385  7.0955e-07  1.6252e-11  3.1107e-12  0:00:19  615

  iter  continuity  x-velocity  y-velocity     time/iter
   386  7.0346e-07  1.6112e-11  3.0840e-12  0:00:19  614
   387  6.9742e-07  1.5974e-11  3.0575e-12  0:00:19  613
   388  6.9143e-07  1.5837e-11  3.0312e-12  0:00:19  612
   389  6.8549e-07  1.5701e-11  3.0052e-12  0:00:19  611
   390  6.7960e-07  1.5566e-11  2.9793e-12  0:00:19  610
   391  6.7376e-07  1.5432e-11  2.9537e-12  0:00:19  609
   392  6.6798e-07  1.5300e-11  2.9284e-12  0:00:18  608
   393  6.6224e-07  1.5168e-11  2.9032e-12  0:00:18  607
   394  6.5655e-07  1.5038e-11  2.8783e-12  0:00:18  606
   395  6.5091e-07  1.4909e-11  2.8536e-12  0:00:18  605
   396  6.4532e-07  1.4781e-11  2.8290e-12  0:00:19  604

  iter  continuity  x-velocity  y-velocity     time/iter
   397  6.3978e-07  1.4654e-11  2.8047e-12  0:00:19  603
   398  6.3429e-07  1.4528e-11  2.7806e-12  0:00:18  602
   399  6.2884e-07  1.4403e-11  2.7568e-12  0:00:19  601
   400  6.2344e-07  1.4279e-11  2.7331e-12  0:00:19  600
   401  6.1808e-07  1.4157e-11  2.7096e-12  0:00:19  599
   402  6.1277e-07  1.4035e-11  2.6863e-12  0:00:19  598
   403  6.0751e-07  1.3915e-11  2.6633e-12  0:00:19  597
   404  6.0229e-07  1.3795e-11  2.6404e-12  0:00:19  596
   405  5.9712e-07  1.3677e-11  2.6177e-12  0:00:19  595
   406  5.9199e-07  1.3559e-11  2.5952e-12  0:00:19  594
   407  5.8691e-07  1.3443e-11  2.5729e-12  0:00:18  593

  iter  continuity  x-velocity  y-velocity     time/iter
   408  5.8187e-07  1.3327e-11  2.5508e-12  0:00:18  592
   409  5.7687e-07  1.3213e-11  2.5289e-12  0:00:18  591
   410  5.7192e-07  1.3099e-11  2.5072e-12  0:00:19  590
   411  5.6700e-07  1.2987e-11  2.4856e-12  0:00:19  589
   412  5.6213e-07  1.2875e-11  2.4643e-12  0:00:19  588
   413  5.5731e-07  1.2765e-11  2.4431e-12  0:00:19  587
   414  5.5252e-07  1.2655e-11  2.4221e-12  0:00:18  586
   415  5.4777e-07  1.2546e-11  2.4013e-12  0:00:19  585
   416  5.4307e-07  1.2439e-11  2.3807e-12  0:00:18  584
   417  5.3841e-07  1.2332e-11  2.3603e-12  0:00:18  583
   418  5.3378e-07  1.2226e-11  2.3400e-12  0:00:18  582

  iter  continuity  x-velocity  y-velocity     time/iter
   419  5.2920e-07  1.2121e-11  2.3199e-12  0:00:18  581
   420  5.2465e-07  1.2017e-11  2.3000e-12  0:00:18  580
   421  5.2015e-07  1.1914e-11  2.2802e-12  0:00:18  579
   422  5.1568e-07  1.1811e-11  2.2606e-12  0:00:18  578
   423  5.1125e-07  1.1710e-11  2.2412e-12  0:00:17  577
   424  5.0686e-07  1.1609e-11  2.2220e-12  0:00:17  576
   425  5.0251e-07  1.1510e-11  2.2029e-12  0:00:17  575
   426  4.9819e-07  1.1411e-11  2.1840e-12  0:00:17  574
   427  4.9391e-07  1.1313e-11  2.1652e-12  0:00:17  573
   428  4.8967e-07  1.1216e-11  2.1466e-12  0:00:17  572
   429  4.8546e-07  1.1119e-11  2.1282e-12  0:00:17  571

  iter  continuity  x-velocity  y-velocity     time/iter
   430  4.8130e-07  1.1024e-11  2.1099e-12  0:00:17  570
   431  4.7716e-07  1.0929e-11  2.0918e-12  0:00:18  569
   432  4.7306e-07  1.0835e-11  2.0738e-12  0:00:17  568
   433  4.6900e-07  1.0742e-11  2.0560e-12  0:00:17  567
   434  4.6497e-07  1.0650e-11  2.0383e-12  0:00:17  566
   435  4.6098e-07  1.0558e-11  2.0208e-12  0:00:17  565
   436  4.5702e-07  1.0468e-11  2.0035e-12  0:00:17  564
   437  4.5309e-07  1.0378e-11  1.9863e-12  0:00:17  563
   438  4.4920e-07  1.0289e-11  1.9692e-12  0:00:17  562
   439  4.4535e-07  1.0200e-11  1.9523e-12  0:00:17  561
   440  4.4152e-07  1.0113e-11  1.9355e-12  0:00:17  560

  iter  continuity  x-velocity  y-velocity     time/iter
   441  4.3773e-07  1.0026e-11  1.9189e-12  0:00:17  559
   442  4.3397e-07  9.9398e-12  1.9024e-12  0:00:17  558
   443  4.3024e-07  9.8544e-12  1.8861e-12  0:00:17  557
   444  4.2655e-07  9.7698e-12  1.8699e-12  0:00:17  556
   445  4.2288e-07  9.6859e-12  1.8538e-12  0:00:17  555
   446  4.1925e-07  9.6027e-12  1.8379e-12  0:00:17  554
   447  4.1565e-07  9.5202e-12  1.8221e-12  0:00:17  553
   448  4.1208e-07  9.4385e-12  1.8065e-12  0:00:17  552
   449  4.0854e-07  9.3574e-12  1.7910e-12  0:00:17  551
   450  4.0503e-07  9.2771e-12  1.7756e-12  0:00:17  550
   451  4.0155e-07  9.1974e-12  1.7603e-12  0:00:17  549

  iter  continuity  x-velocity  y-velocity     time/iter
   452  3.9811e-07  9.1184e-12  1.7452e-12  0:00:17  548
   453  3.9469e-07  9.0401e-12  1.7302e-12  0:00:17  547
   454  3.9130e-07  8.9624e-12  1.7154e-12  0:00:17  546
   455  3.8794e-07  8.8855e-12  1.7006e-12  0:00:17  545
   456  3.8460e-07  8.8091e-12  1.6860e-12  0:00:17  544
   457  3.8130e-07  8.7335e-12  1.6715e-12  0:00:17  543
   458  3.7803e-07  8.6585e-12  1.6572e-12  0:00:17  542
   459  3.7478e-07  8.5841e-12  1.6429e-12  0:00:16  541
   460  3.7156e-07  8.5104e-12  1.6288e-12  0:00:16  540
   461  3.6837e-07  8.4373e-12  1.6148e-12  0:00:16  539
   462  3.6521e-07  8.3648e-12  1.6010e-12  0:00:16  538

  iter  continuity  x-velocity  y-velocity     time/iter
   463  3.6207e-07  8.2930e-12  1.5872e-12  0:00:16  537
   464  3.5896e-07  8.2218e-12  1.5736e-12  0:00:16  536
   465  3.5588e-07  8.1512e-12  1.5601e-12  0:00:28  535
   466  3.5282e-07  8.0812e-12  1.5467e-12  0:00:26  534
   467  3.4979e-07  8.0118e-12  1.5334e-12  0:01:02  533
   468  3.4679e-07  7.9429e-12  1.5202e-12  0:00:54  532
   469  3.4381e-07  7.8747e-12  1.5072e-12  0:00:46  531
   470  3.4086e-07  7.8071e-12  1.4942e-12  0:00:40  530
   471  3.3793e-07  7.7400e-12  1.4814e-12  0:00:36  529
   472  3.3503e-07  7.6736e-12  1.4687e-12  0:00:32  528
   473  3.3215e-07  7.6077e-12  1.4561e-12  0:00:29  527

  iter  continuity  x-velocity  y-velocity     time/iter
   474  3.2930e-07  7.5423e-12  1.4435e-12  0:00:26  526
   475  3.2647e-07  7.4776e-12  1.4312e-12  0:00:24  525
   476  3.2366e-07  7.4133e-12  1.4189e-12  0:00:23  524
   477  3.2088e-07  7.3497e-12  1.4067e-12  0:00:21  523
   478  3.1813e-07  7.2865e-12  1.3946e-12  0:00:21  522
   479  3.1540e-07  7.2240e-12  1.3826e-12  0:00:19  521
   480  3.1269e-07  7.1619e-12  1.3707e-12  0:00:19  520
   481  3.1000e-07  7.1004e-12  1.3590e-12  0:00:18  519
   482  3.0734e-07  7.0394e-12  1.3473e-12  0:00:17  518
   483  3.0470e-07  6.9790e-12  1.3357e-12  0:00:17  517
   484  3.0208e-07  6.9190e-12  1.3243e-12  0:00:17  516

  iter  continuity  x-velocity  y-velocity     time/iter
   485  2.9949e-07  6.8596e-12  1.3129e-12  0:00:17  515
   486  2.9692e-07  6.8007e-12  1.3016e-12  0:00:16  514
   487  2.9437e-07  6.7423e-12  1.2904e-12  0:00:16  513
   488  2.9184e-07  6.6844e-12  1.2793e-12  0:00:16  512
   489  2.8933e-07  6.6270e-12  1.2684e-12  0:00:16  511
   490  2.8685e-07  6.5701e-12  1.2575e-12  0:00:16  510
   491  2.8438e-07  6.5136e-12  1.2467e-12  0:00:16  509
   492  2.8194e-07  6.4577e-12  1.2360e-12  0:00:16  508
   493  2.7952e-07  6.4022e-12  1.2253e-12  0:00:15  507
   494  2.7712e-07  6.3472e-12  1.2148e-12  0:00:16  506
   495  2.7474e-07  6.2927e-12  1.2044e-12  0:00:15  505

  iter  continuity  x-velocity  y-velocity     time/iter
   496  2.7238e-07  6.2387e-12  1.1940e-12  0:00:15  504
   497  2.7004e-07  6.1851e-12  1.1838e-12  0:00:15  503
   498  2.6772e-07  6.1320e-12  1.1736e-12  0:00:15  502
   499  2.6542e-07  6.0793e-12  1.1635e-12  0:00:15  501
   500  2.6314e-07  6.0271e-12  1.1535e-12  0:00:16  500
   501  2.6088e-07  5.9753e-12  1.1436e-12  0:00:16  499
   502  2.5864e-07  5.9240e-12  1.1338e-12  0:00:16  498
   503  2.5642e-07  5.8732e-12  1.1241e-12  0:00:16  497
   504  2.5422e-07  5.8227e-12  1.1144e-12  0:00:15  496
   505  2.5203e-07  5.7727e-12  1.1049e-12  0:00:15  495
   506  2.4987e-07  5.7231e-12  1.0954e-12  0:00:15  494

  iter  continuity  x-velocity  y-velocity     time/iter
   507  2.4772e-07  5.6740e-12  1.0860e-12  0:00:15  493
   508  2.4560e-07  5.6252e-12  1.0766e-12  0:00:15  492
   509  2.4349e-07  5.5769e-12  1.0674e-12  0:00:15  491
   510  2.4140e-07  5.5290e-12  1.0582e-12  0:00:15  490
   511  2.3932e-07  5.4815e-12  1.0491e-12  0:00:15  489
   512  2.3727e-07  5.4345e-12  1.0401e-12  0:00:15  488
   513  2.3523e-07  5.3878e-12  1.0312e-12  0:00:16  487
   514  2.3321e-07  5.3415e-12  1.0223e-12  0:00:16  486
   515  2.3121e-07  5.2956e-12  1.0135e-12  0:00:16  485
   516  2.2922e-07  5.2502e-12  1.0048e-12  0:00:15  484
   517  2.2725e-07  5.2051e-12  9.9621e-13  0:00:15  483

  iter  continuity  x-velocity  y-velocity     time/iter
   518  2.2530e-07  5.1604e-12  9.8766e-13  0:00:15  482
   519  2.2337e-07  5.1161e-12  9.7917e-13  0:00:15  481
   520  2.2145e-07  5.0721e-12  9.7076e-13  0:00:15  480
   521  2.1955e-07  5.0286e-12  9.6243e-13  0:00:15  479
   522  2.1766e-07  4.9854e-12  9.5416e-13  0:00:15  478
   523  2.1579e-07  4.9425e-12  9.4597e-13  0:00:15  477
   524  2.1394e-07  4.9001e-12  9.3784e-13  0:00:16  476
   525  2.1210e-07  4.8580e-12  9.2979e-13  0:00:15  475
   526  2.1028e-07  4.8163e-12  9.2180e-13  0:00:15  474
   527  2.0847e-07  4.7749e-12  9.1388e-13  0:00:15  473
   528  2.0668e-07  4.7339e-12  9.0603e-13  0:00:15  472

  iter  continuity  x-velocity  y-velocity     time/iter
   529  2.0491e-07  4.6933e-12  8.9825e-13  0:00:15  471
   530  2.0315e-07  4.6530e-12  8.9054e-13  0:00:15  470
   531  2.0140e-07  4.6130e-12  8.8289e-13  0:00:15  469
   532  1.9967e-07  4.5734e-12  8.7531e-13  0:00:15  468
   533  1.9796e-07  4.5341e-12  8.6779e-13  0:00:15  467
   534  1.9626e-07  4.4952e-12  8.6034e-13  0:00:15  466
   535  1.9457e-07  4.4566e-12  8.5295e-13  0:00:15  465
   536  1.9290e-07  4.4183e-12  8.4562e-13  0:00:15  464
   537  1.9124e-07  4.3803e-12  8.3836e-13  0:00:15  463
   538  1.8960e-07  4.3427e-12  8.3116e-13  0:00:15  462
   539  1.8797e-07  4.3054e-12  8.2402e-13  0:00:15  461

  iter  continuity  x-velocity  y-velocity     time/iter
   540  1.8636e-07  4.2684e-12  8.1694e-13  0:00:14  460
   541  1.8476e-07  4.2318e-12  8.0993e-13  0:00:15  459
   542  1.8317e-07  4.1954e-12  8.0297e-13  0:00:15  458
   543  1.8160e-07  4.1594e-12  7.9608e-13  0:00:15  457
   544  1.8004e-07  4.1237e-12  7.8924e-13  0:00:15  456
   545  1.7849e-07  4.0883e-12  7.8246e-13  0:00:15  455
   546  1.7696e-07  4.0532e-12  7.7574e-13  0:00:14  454
   547  1.7544e-07  4.0183e-12  7.6908e-13  0:00:14  453
   548  1.7393e-07  3.9838e-12  7.6247e-13  0:00:14  452
   549  1.7244e-07  3.9496e-12  7.5592e-13  0:00:14  451
   550  1.7096e-07  3.9157e-12  7.4943e-13  0:00:14  450

  iter  continuity  x-velocity  y-velocity     time/iter
   551  1.6949e-07  3.8821e-12  7.4300e-13  0:00:14  449
   552  1.6803e-07  3.8487e-12  7.3661e-13  0:00:14  448
   553  1.6659e-07  3.8157e-12  7.3029e-13  0:00:14  447
   554  1.6516e-07  3.7829e-12  7.2402e-13  0:00:14  446
   555  1.6374e-07  3.7504e-12  7.1780e-13  0:00:14  445
   556  1.6234e-07  3.7182e-12  7.1163e-13  0:00:14  444
   557  1.6094e-07  3.6863e-12  7.0552e-13  0:00:14  443
   558  1.5956e-07  3.6546e-12  6.9946e-13  0:00:14  442
   559  1.5819e-07  3.6232e-12  6.9345e-13  0:00:14  441
   560  1.5683e-07  3.5921e-12  6.8750e-13  0:00:13  440
   561  1.5548e-07  3.5613e-12  6.8159e-13  0:00:13  439

  iter  continuity  x-velocity  y-velocity     time/iter
   562  1.5415e-07  3.5307e-12  6.7574e-13  0:00:13  438
   563  1.5282e-07  3.5003e-12  6.6994e-13  0:00:13  437
   564  1.5151e-07  3.4703e-12  6.6418e-13  0:00:13  436
   565  1.5021e-07  3.4405e-12  6.5848e-13  0:00:13  435
   566  1.4892e-07  3.4109e-12  6.5282e-13  0:00:14  434
   567  1.4764e-07  3.3816e-12  6.4722e-13  0:00:13  433
   568  1.4637e-07  3.3526e-12  6.4166e-13  0:00:13  432
   569  1.4512e-07  3.3238e-12  6.3615e-13  0:00:13  431
   570  1.4387e-07  3.2953e-12  6.3068e-13  0:00:13  430
   571  1.4263e-07  3.2670e-12  6.2527e-13  0:00:13  429
   572  1.4141e-07  3.2389e-12  6.1990e-13  0:00:14  428

  iter  continuity  x-velocity  y-velocity     time/iter
   573  1.4019e-07  3.2111e-12  6.1457e-13  0:00:14  427
   574  1.3899e-07  3.1835e-12  6.0929e-13  0:00:14  426
   575  1.3780e-07  3.1562e-12  6.0406e-13  0:00:14  425
   576  1.3661e-07  3.1291e-12  5.9887e-13  0:00:14  424
   577  1.3544e-07  3.1022e-12  5.9373e-13  0:00:14  423
   578  1.3428e-07  3.0755e-12  5.8863e-13  0:00:14  422
   579  1.3312e-07  3.0491e-12  5.8358e-13  0:00:14  421
   580  1.3198e-07  3.0229e-12  5.7856e-13  0:00:14  420
   581  1.3085e-07  2.9970e-12  5.7359e-13  0:00:13  419
   582  1.2972e-07  2.9712e-12  5.6867e-13  0:00:13  418
   583  1.2861e-07  2.9457e-12  5.6378e-13  0:00:13  417

  iter  continuity  x-velocity  y-velocity     time/iter
   584  1.2750e-07  2.9204e-12  5.5894e-13  0:00:13  416
   585  1.2641e-07  2.8953e-12  5.5414e-13  0:00:13  415
   586  1.2532e-07  2.8705e-12  5.4938e-13  0:00:13  414
   587  1.2425e-07  2.8458e-12  5.4466e-13  0:00:13  413
   588  1.2318e-07  2.8214e-12  5.3999e-13  0:00:13  412
   589  1.2212e-07  2.7971e-12  5.3535e-13  0:00:13  411
   590  1.2107e-07  2.7731e-12  5.3075e-13  0:00:13  410
   591  1.2003e-07  2.7493e-12  5.2619e-13  0:00:12  409
   592  1.1900e-07  2.7257e-12  5.2167e-13  0:00:42  408
   593  1.1798e-07  2.7023e-12  5.1719e-13  0:00:36  407
   594  1.1697e-07  2.6791e-12  5.1275e-13  0:00:31  406

  iter  continuity  x-velocity  y-velocity     time/iter
   595  1.1596e-07  2.6561e-12  5.0835e-13  0:00:28  405
   596  1.1497e-07  2.6333e-12  5.0398e-13  0:00:25  404
   597  1.1398e-07  2.6106e-12  4.9965e-13  0:00:22  403
   598  1.1300e-07  2.5882e-12  4.9536e-13  0:00:21  402
   599  1.1203e-07  2.5660e-12  4.9111e-13  0:00:19  401
   600  1.1107e-07  2.5440e-12  4.8689e-13  0:00:18  400
   601  1.1011e-07  2.5221e-12  4.8271e-13  0:00:17  399
   602  1.0917e-07  2.5004e-12  4.7856e-13  0:00:16  398
   603  1.0823e-07  2.4790e-12  4.7445e-13  0:00:15  397
   604  1.0730e-07  2.4577e-12  4.7038e-13  0:00:15  396
   605  1.0638e-07  2.4366e-12  4.6634e-13  0:00:14  395

  iter  continuity  x-velocity  y-velocity     time/iter
   606  1.0547e-07  2.4157e-12  4.6233e-13  0:00:13  394
   607  1.0456e-07  2.3949e-12  4.5836e-13  0:00:13  393
   608  1.0366e-07  2.3743e-12  4.5442e-13  0:00:13  392
   609  1.0277e-07  2.3539e-12  4.5052e-13  0:00:13  391
   610  1.0189e-07  2.3337e-12  4.4665e-13  0:00:13  390
   611  1.0101e-07  2.3137e-12  4.4282e-13  0:00:12  389
   612  1.0015e-07  2.2938e-12  4.3901e-13  0:00:12  388
   613  9.9287e-08  2.2741e-12  4.3524e-13  0:00:12  387
   614  9.8434e-08  2.2546e-12  4.3151e-13  0:00:12  386
   615  9.7589e-08  2.2352e-12  4.2780e-13  0:00:12  385
   616  9.6751e-08  2.2160e-12  4.2413e-13  0:00:12  384

  iter  continuity  x-velocity  y-velocity     time/iter
   617  9.5920e-08  2.1970e-12  4.2048e-13  0:00:12  383
   618  9.5096e-08  2.1781e-12  4.1687e-13  0:00:12  382
   619  9.4279e-08  2.1594e-12  4.1329e-13  0:00:12  381
   620  9.3470e-08  2.1409e-12  4.0974e-13  0:00:12  380
   621  9.2667e-08  2.1225e-12  4.0622e-13  0:00:12  379
   622  9.1871e-08  2.1043e-12  4.0273e-13  0:00:12  378
   623  9.1082e-08  2.0862e-12  3.9927e-13  0:00:12  377
   624  9.0300e-08  2.0683e-12  3.9585e-13  0:00:12  376
   625  8.9524e-08  2.0505e-12  3.9245e-13  0:00:12  375
   626  8.8755e-08  2.0329e-12  3.8908e-13  0:00:13  374
   627  8.7993e-08  2.0154e-12  3.8573e-13  0:00:12  373

  iter  continuity  x-velocity  y-velocity     time/iter
   628  8.7237e-08  1.9981e-12  3.8242e-13  0:00:13  372
   629  8.6488e-08  1.9810e-12  3.7914e-13  0:00:13  371
   630  8.5745e-08  1.9640e-12  3.7588e-13  0:00:13  370
   631  8.5009e-08  1.9471e-12  3.7265e-13  0:00:12  369
   632  8.4279e-08  1.9304e-12  3.6945e-13  0:00:12  368
   633  8.3555e-08  1.9138e-12  3.6628e-13  0:00:12  367
   634  8.2837e-08  1.8974e-12  3.6313e-13  0:00:12  366
   635  8.2126e-08  1.8811e-12  3.6001e-13  0:00:12  365
   636  8.1421e-08  1.8649e-12  3.5692e-13  0:00:12  364
   637  8.0721e-08  1.8489e-12  3.5386e-13  0:00:12  363
   638  8.0028e-08  1.8330e-12  3.5082e-13  0:00:11  362

  iter  continuity  x-velocity  y-velocity     time/iter
   639  7.9341e-08  1.8173e-12  3.4780e-13  0:00:12  361
   640  7.8659e-08  1.8017e-12  3.4482e-13  0:00:11  360
   641  7.7984e-08  1.7862e-12  3.4186e-13  0:00:12  359
   642  7.7314e-08  1.7708e-12  3.3892e-13  0:00:12  358
   643  7.6650e-08  1.7556e-12  3.3601e-13  0:00:12  357
   644  7.5992e-08  1.7406e-12  3.3312e-13  0:00:12  356
   645  7.5339e-08  1.7256e-12  3.3026e-13  0:00:12  355
   646  7.4692e-08  1.7108e-12  3.2743e-13  0:00:12  354
   647  7.4051e-08  1.6961e-12  3.2461e-13  0:00:11  353
   648  7.3415e-08  1.6815e-12  3.2183e-13  0:00:11  352
   649  7.2784e-08  1.6671e-12  3.1906e-13  0:00:11  351

  iter  continuity  x-velocity  y-velocity     time/iter
   650  7.2159e-08  1.6528e-12  3.1632e-13  0:00:11  350
   651  7.1539e-08  1.6386e-12  3.1360e-13  0:00:11  349
   652  7.0925e-08  1.6245e-12  3.1091e-13  0:00:11  348
   653  7.0316e-08  1.6106e-12  3.0824e-13  0:00:11  347
   654  6.9712e-08  1.5967e-12  3.0559e-13  0:00:11  346
   655  6.9113e-08  1.5830e-12  3.0297e-13  0:00:11  345
   656  6.8520e-08  1.5694e-12  3.0037e-13  0:00:11  344
   657  6.7931e-08  1.5559e-12  2.9779e-13  0:00:11  343
   658  6.7348e-08  1.5426e-12  2.9523e-13  0:00:11  342
   659  6.6769e-08  1.5293e-12  2.9270e-13  0:00:11  341
   660  6.6196e-08  1.5162e-12  2.9018e-13  0:00:11  340

  iter  continuity  x-velocity  y-velocity     time/iter
   661  6.5628e-08  1.5032e-12  2.8769e-13  0:00:11  339
   662  6.5064e-08  1.4903e-12  2.8522e-13  0:00:11  338
   663  6.4505e-08  1.4775e-12  2.8277e-13  0:00:10  337
   664  6.3951e-08  1.4648e-12  2.8034e-13  0:00:10  336
   665  6.3402e-08  1.4522e-12  2.7793e-13  0:00:10  335
   666  6.2857e-08  1.4397e-12  2.7555e-13  0:00:11  334
   667  6.2318e-08  1.4274e-12  2.7318e-13  0:00:11  333
   668  6.1782e-08  1.4151e-12  2.7083e-13  0:00:11  332
   669  6.1252e-08  1.4029e-12  2.6851e-13  0:00:10  331
   670  6.0726e-08  1.3909e-12  2.6620e-13  0:00:10  330
   671  6.0204e-08  1.3789e-12  2.6391e-13  0:00:10  329

  iter  continuity  x-velocity  y-velocity     time/iter
   672  5.9687e-08  1.3671e-12  2.6165e-13  0:00:10  328
   673  5.9175e-08  1.3554e-12  2.5940e-13  0:00:10  327
   674  5.8666e-08  1.3437e-12  2.5717e-13  0:00:10  326
   675  5.8162e-08  1.3322e-12  2.5496e-13  0:00:10  325
   676  5.7663e-08  1.3207e-12  2.5277e-13  0:00:10  324
   677  5.7168e-08  1.3094e-12  2.5060e-13  0:00:10  323
   678  5.6677e-08  1.2982e-12  2.4845e-13  0:00:10  322
   679  5.6190e-08  1.2870e-12  2.4632e-13  0:00:10  321
   680  5.5708e-08  1.2760e-12  2.4420e-13  0:00:10  320
   681  5.5229e-08  1.2650e-12  2.4210e-13  0:00:18  319
   682  5.4755e-08  1.2541e-12  2.4003e-13  0:00:16  318

  iter  continuity  x-velocity  y-velocity     time/iter
   683  5.4285e-08  1.2434e-12  2.3796e-13  0:00:15  317
   684  5.3818e-08  1.2327e-12  2.3592e-13  0:00:14  316
   685  5.3356e-08  1.2221e-12  2.3389e-13  0:00:13  315
   686  5.2898e-08  1.2116e-12  2.3189e-13  0:00:12  314
   687  5.2444e-08  1.2012e-12  2.2989e-13  0:00:12  313
   688  5.1993e-08  1.1909e-12  2.2792e-13  0:00:11  312
   689  5.1547e-08  1.1807e-12  2.2596e-13  0:00:11  311
   690  5.1104e-08  1.1705e-12  2.2402e-13  0:00:10  310
   691  5.0665e-08  1.1605e-12  2.2210e-13  0:00:10  309
   692  5.0230e-08  1.1505e-12  2.2019e-13  0:00:10  308
   693  4.9799e-08  1.1406e-12  2.1830e-13  0:00:10  307

  iter  continuity  x-velocity  y-velocity     time/iter
   694  4.9371e-08  1.1308e-12  2.1642e-13  0:00:10  306
   695  4.8947e-08  1.1211e-12  2.1456e-13  0:00:10  305
   696  4.8527e-08  1.1115e-12  2.1272e-13  0:00:09  304
   697  4.8110e-08  1.1019e-12  2.1090e-13  0:00:09  303
   698  4.7697e-08  1.0925e-12  2.0908e-13  0:00:09  302
   699  4.7287e-08  1.0831e-12  2.0729e-13  0:00:09  301
   700  4.6881e-08  1.0738e-12  2.0551e-13  0:00:09  300
   701  4.6478e-08  1.0646e-12  2.0374e-13  0:00:09  299
   702  4.6079e-08  1.0554e-12  2.0199e-13  0:00:09  298
   703  4.5684e-08  1.0464e-12  2.0026e-13  0:00:09  297
   704  4.5291e-08  1.0374e-12  1.9854e-13  0:00:09  296

  iter  continuity  x-velocity  y-velocity     time/iter
   705  4.4902e-08  1.0285e-12  1.9683e-13  0:00:09  295
   706  4.4516e-08  1.0196e-12  1.9514e-13  0:00:09  294
   707  4.4134e-08  1.0109e-12  1.9347e-13  0:00:09  293
   708  4.3755e-08  1.0022e-12  1.9181e-13  0:00:09  292
   709  4.3379e-08  9.9358e-13  1.9016e-13  0:00:09  291
   710  4.3007e-08  9.8505e-13  1.8852e-13  0:00:09  290
   711  4.2637e-08  9.7659e-13  1.8691e-13  0:00:09  289
   712  4.2271e-08  9.6821e-13  1.8530e-13  0:00:09  288
   713  4.1908e-08  9.5989e-13  1.8371e-13  0:00:09  287
   714  4.1548e-08  9.5165e-13  1.8213e-13  0:00:09  286
   715  4.1192e-08  9.4347e-13  1.8057e-13  0:00:09  285

  iter  continuity  x-velocity  y-velocity     time/iter
   716  4.0838e-08  9.3537e-13  1.7902e-13  0:00:30  284
   717  4.0487e-08  9.2734e-13  1.7748e-13  0:00:25  283
   718  4.0139e-08  9.1937e-13  1.7595e-13  0:00:22  282
   719  3.9795e-08  9.1148e-13  1.7444e-13  0:00:19  281
   720  3.9453e-08  9.0365e-13  1.7294e-13  0:00:17  280
   721  3.9114e-08  8.9589e-13  1.7146e-13  0:00:16  279
   722  3.8778e-08  8.8820e-13  1.6999e-13  0:00:14  278
   723  3.8445e-08  8.8057e-13  1.6853e-13  0:00:13  277
   724  3.8115e-08  8.7301e-13  1.6708e-13  0:00:12  276
   725  3.7788e-08  8.6551e-13  1.6565e-13  0:00:11  275
   726  3.7463e-08  8.5808e-13  1.6422e-13  0:00:11  274

  iter  continuity  x-velocity  y-velocity     time/iter
   727  3.7141e-08  8.5071e-13  1.6281e-13  0:00:10  273
   728  3.6822e-08  8.4340e-13  1.6141e-13  0:00:10  272
   729  3.6506e-08  8.3616e-13  1.6003e-13  0:00:09  271
   730  3.6193e-08  8.2898e-13  1.5865e-13  0:00:09  270
   731  3.5882e-08  8.2186e-13  1.5729e-13  0:00:09  269
   732  3.5574e-08  8.1480e-13  1.5594e-13  0:00:09  268
   733  3.5268e-08  8.0780e-13  1.5460e-13  0:00:09  267
   734  3.4965e-08  8.0087e-13  1.5327e-13  0:00:09  266
   735  3.4665e-08  7.9399e-13  1.5196e-13  0:00:09  265
   736  3.4367e-08  7.8717e-13  1.5065e-13  0:00:08  264
   737  3.4072e-08  7.8041e-13  1.4936e-13  0:00:09  263

  iter  continuity  x-velocity  y-velocity     time/iter
   738  3.3780e-08  7.7371e-13  1.4807e-13  0:00:08  262
   739  3.3490e-08  7.6706e-13  1.4680e-13  0:00:08  261
   740  3.3202e-08  7.6047e-13  1.4554e-13  0:00:08  260
   741  3.2917e-08  7.5394e-13  1.4429e-13  0:00:08  259
   742  3.2634e-08  7.4747e-13  1.4305e-13  0:00:08  258
   743  3.2354e-08  7.4105e-13  1.4182e-13  0:00:08  257
   744  3.2076e-08  7.3469e-13  1.4061e-13  0:00:08  256
   745  3.1801e-08  7.2838e-13  1.3940e-13  0:00:08  255
   746  3.1527e-08  7.2212e-13  1.3820e-13  0:00:08  254
   747  3.1257e-08  7.1592e-13  1.3702e-13  0:00:08  253
   748  3.0988e-08  7.0977e-13  1.3584e-13  0:00:08  252

  iter  continuity  x-velocity  y-velocity     time/iter
   749  3.0722e-08  7.0368e-13  1.3467e-13  0:00:08  251
   750  3.0458e-08  6.9763e-13  1.3351e-13  0:00:08  250
   751  3.0197e-08  6.9164e-13  1.3237e-13  0:00:08  249
   752  2.9937e-08  6.8570e-13  1.3123e-13  0:00:08  248
   753  2.9680e-08  6.7982e-13  1.3010e-13  0:00:08  247
   754  2.9426e-08  6.7398e-13  1.2899e-13  0:00:08  246
   755  2.9173e-08  6.6819e-13  1.2788e-13  0:00:08  245
   756  2.8922e-08  6.6245e-13  1.2678e-13  0:00:08  244
   757  2.8674e-08  6.5676e-13  1.2569e-13  0:00:08  243
   758  2.8428e-08  6.5112e-13  1.2461e-13  0:00:08  242
   759  2.8183e-08  6.4553e-13  1.2354e-13  0:00:08  241

  iter  continuity  x-velocity  y-velocity     time/iter
   760  2.7942e-08  6.3998e-13  1.2248e-13  0:00:08  240
   761  2.7702e-08  6.3449e-13  1.2143e-13  0:00:08  239
   762  2.7464e-08  6.2904e-13  1.2039e-13  0:00:08  238
   763  2.7228e-08  6.2364e-13  1.1935e-13  0:00:08  237
   764  2.6994e-08  6.1828e-13  1.1833e-13  0:00:08  236
   765  2.6762e-08  6.1297e-13  1.1731e-13  0:00:08  235
   766  2.6532e-08  6.0771e-13  1.1630e-13  0:00:08  234
   767  2.6304e-08  6.0249e-13  1.1530e-13  0:00:08  233
   768  2.6079e-08  5.9732e-13  1.1431e-13  0:00:07  232
   769  2.5855e-08  5.9219e-13  1.1333e-13  0:00:07  231
   770  2.5632e-08  5.8710e-13  1.1236e-13  0:00:07  230

  iter  continuity  x-velocity  y-velocity     time/iter
   771  2.5412e-08  5.8206e-13  1.1139e-13  0:00:07  229
   772  2.5194e-08  5.7706e-13  1.1044e-13  0:00:07  228
   773  2.4978e-08  5.7211e-13  1.0949e-13  0:00:07  227
   774  2.4764e-08  5.6719e-13  1.0855e-13  0:00:07  226
   775  2.4551e-08  5.6232e-13  1.0762e-13  0:00:07  225
   776  2.4340e-08  5.5749e-13  1.0669e-13  0:00:07  224
   777  2.4131e-08  5.5271e-13  1.0578e-13  0:00:07  223
   778  2.3924e-08  5.4796e-13  1.0487e-13  0:00:07  222
   779  2.3718e-08  5.4325e-13  1.0397e-13  0:00:07  221
   780  2.3515e-08  5.3859e-13  1.0307e-13  0:00:07  220
   781  2.3313e-08  5.3396e-13  1.0219e-13  0:00:07  219

  iter  continuity  x-velocity  y-velocity     time/iter
   782  2.3112e-08  5.2938e-13  1.0131e-13  0:00:07  218
   783  2.2914e-08  5.2483e-13  1.0044e-13  0:00:07  217
   784  2.2717e-08  5.2032e-13  9.9578e-14  0:00:07  216
   785  2.2522e-08  5.1586e-13  9.8723e-14  0:00:07  215
   786  2.2329e-08  5.1143e-13  9.7875e-14  0:00:07  214
   787  2.2137e-08  5.0703e-13  9.7035e-14  0:00:06  213
   788  2.1947e-08  5.0268e-13  9.6201e-14  0:00:06  212
   789  2.1758e-08  4.9836e-13  9.5375e-14  0:00:07  211
   790  2.1571e-08  4.9408e-13  9.4556e-14  0:00:07  210
   791  2.1386e-08  4.8984e-13  9.3744e-14  0:00:07  209
   792  2.1203e-08  4.8563e-13  9.2939e-14  0:00:06  208

  iter  continuity  x-velocity  y-velocity     time/iter
   793  2.1020e-08  4.8146e-13  9.2141e-14  0:00:06  207
   794  2.0840e-08  4.7733e-13  9.1349e-14  0:00:06  206
   795  2.0661e-08  4.7323e-13  9.0565e-14  0:00:06  205
   796  2.0484e-08  4.6916e-13  8.9787e-14  0:00:06  204
   797  2.0308e-08  4.6514e-13  8.9016e-14  0:00:07  203
   798  2.0133e-08  4.6114e-13  8.8252e-14  0:00:07  202
   799  1.9960e-08  4.5718e-13  8.7493e-14  0:00:07  201
   800  1.9789e-08  4.5326e-13  8.6742e-14  0:00:07  200
   801  1.9619e-08  4.4936e-13  8.5998e-14  0:00:07  199
   802  1.9451e-08  4.4550e-13  8.5259e-14  0:00:07  198
   803  1.9284e-08  4.4168e-13  8.4527e-14  0:00:07  197

  iter  continuity  x-velocity  y-velocity     time/iter
   804  1.9118e-08  4.3789e-13  8.3800e-14  0:00:06  196
   805  1.8954e-08  4.3413e-13  8.3081e-14  0:00:06  195
   806  1.8791e-08  4.3040e-13  8.2368e-14  0:00:06  194
   807  1.8630e-08  4.2670e-13  8.1660e-14  0:00:06  193
   808  1.8470e-08  4.2304e-13  8.0958e-14  0:00:06  192
   809  1.8311e-08  4.1941e-13  8.0263e-14  0:00:06  191
   810  1.8154e-08  4.1580e-13  7.9574e-14  0:00:06  190
   811  1.7998e-08  4.1223e-13  7.8891e-14  0:00:06  189
   812  1.7843e-08  4.0869e-13  7.8213e-14  0:00:06  188
   813  1.7690e-08  4.0518e-13  7.7542e-14  0:00:06  187
   814  1.7538e-08  4.0170e-13  7.6876e-14  0:00:06  186

  iter  continuity  x-velocity  y-velocity     time/iter
   815  1.7388e-08  3.9826e-13  7.6215e-14  0:00:06  185
   816  1.7238e-08  3.9483e-13  7.5561e-14  0:00:06  184
   817  1.7090e-08  3.9144e-13  7.4912e-14  0:00:06  183
   818  1.6944e-08  3.8808e-13  7.4269e-14  0:00:06  182
   819  1.6798e-08  3.8475e-13  7.3631e-14  0:00:06  181
   820  1.6654e-08  3.8145e-13  7.2998e-14  0:00:06  180
   821  1.6511e-08  3.7817e-13  7.2371e-14  0:00:05  179
   822  1.6369e-08  3.7492e-13  7.1750e-14  0:00:05  178
   823  1.6229e-08  3.7170e-13  7.1134e-14  0:00:05  177
   824  1.6089e-08  3.6851e-13  7.0523e-14  0:00:05  176
   825  1.5951e-08  3.6535e-13  6.9917e-14  0:00:05  175

  iter  continuity  x-velocity  y-velocity     time/iter
   826  1.5814e-08  3.6221e-13  6.9317e-14  0:00:05  174
   827  1.5678e-08  3.5910e-13  6.8721e-14  0:00:05  173
   828  1.5544e-08  3.5602e-13  6.8131e-14  0:00:06  172
   829  1.5410e-08  3.5296e-13  6.7546e-14  0:00:05  171
   830  1.5278e-08  3.4993e-13  6.6965e-14  0:00:05  170
   831  1.5147e-08  3.4692e-13  6.6391e-14  0:00:05  169
   832  1.5017e-08  3.4394e-13  6.5821e-14  0:00:05  168
   833  1.4888e-08  3.4099e-13  6.5256e-14  0:00:05  167
   834  1.4760e-08  3.3806e-13  6.4695e-14  0:00:05  166
   835  1.4633e-08  3.3516e-13  6.4140e-14  0:00:05  165
   836  1.4507e-08  3.3228e-13  6.3588e-14  0:00:05  164

  iter  continuity  x-velocity  y-velocity     time/iter
   837  1.4383e-08  3.2943e-13  6.3042e-14  0:00:05  163
   838  1.4259e-08  3.2660e-13  6.2501e-14  0:00:17  162
   839  1.4137e-08  3.2379e-13  6.1965e-14  0:00:15  161
   840  1.4016e-08  3.2101e-13  6.1432e-14  0:00:13  160
[...]
  3557  4.5133e-06  1.4244e-10  1.1184e-10  0:00:19  443
  3558  4.1588e-06  1.4152e-10  1.1195e-10  0:00:20  442
  3559  4.3835e-06  1.4023e-10  1.1306e-10  0:00:18  441
  3560  3.9119e-06  1.3924e-10  1.1128e-10  0:00:19  440
  3561  3.5809e-06  1.3814e-10  1.0995e-10  0:00:19  439

  iter  continuity  x-velocity  y-velocity     time/iter
  3562  3.8082e-06  1.3695e-10  1.0857e-10  0:00:18  438
  3563  3.4968e-06  1.3608e-10  1.0528e-10  0:00:19  437
  3564  3.2321e-06  1.3514e-10  1.0251e-10  0:00:19  436
  3565  3.5271e-06  1.3419e-10  9.9974e-11  0:00:19  435
  3566  3.3171e-06  1.3348e-10  9.6416e-11  0:00:19  434
  3567  3.1949e-06  1.3299e-10  9.3782e-11  0:00:19  433
  3568  3.5481e-06  1.3271e-10  9.1918e-11  0:00:19  432
  3569  3.4410e-06  1.3260e-10  8.9621e-11  0:00:18  431
  3570  3.3971e-06  1.3254e-10  8.8735e-11  0:00:19  430
  3571  3.8136e-06  1.3235e-10  8.9294e-11  0:00:19  429
  3572  3.6437e-06  1.3207e-10  8.9504e-11  0:00:18  428

  iter  continuity  x-velocity  y-velocity     time/iter
  3573  3.5722e-06  1.3165e-10  9.1575e-11  0:00:18  427
  3574  3.9379e-06  1.3103e-10  9.4617e-11  0:00:19  426
  3575  3.7594e-06  1.3110e-10  9.6725e-11  0:00:18  425
  3576  3.6644e-06  1.3089e-10  9.9029e-11  0:00:18  424
  3577  4.0078e-06  1.3022e-10  1.0147e-10  0:00:19  423
  3578  3.7251e-06  1.2971e-10  1.0192e-10  0:00:19  422
  3579  3.5030e-06  1.2886e-10  1.0245e-10  0:00:19  421
  3580  3.7320e-06  1.2800e-10  1.0263e-10  0:00:18  420
  3581  3.4197e-06  1.2739e-10  1.0138e-10  0:00:18  419
  3582  3.2025e-06  1.2674e-10  1.0010e-10  0:00:48  418
  3583  3.4337e-06  1.2603e-10  9.8900e-11  0:00:42  417

  iter  continuity  x-velocity  y-velocity     time/iter
  3584  3.1382e-06  1.2563e-10  9.6113e-11  0:00:38  416
  3585  2.9490e-06  1.2512e-10  9.3936e-11  0:00:34  415
  3586  3.2124e-06  1.2462e-10  9.1926e-11  0:00:31  414
  3587  3.0305e-06  1.2438e-10  8.9180e-11  0:00:28  413
  3588  2.9553e-06  1.2437e-10  8.7254e-11  0:00:26  412
  3589  3.2956e-06  1.2439e-10  8.6130e-11  0:00:24  411
  3590  3.1781e-06  1.2463e-10  8.4505e-11  0:00:22  410
  3591  3.1495e-06  1.2487e-10  8.4192e-11  0:00:22  409
  3592  3.2671e-06  1.2501e-10  8.4551e-11  0:00:21  408
  3593  3.5254e-06  1.2483e-10  8.6355e-11  0:00:21  407
  3594  3.4260e-06  1.2482e-10  8.8078e-11  0:00:19  406

  iter  continuity  x-velocity  y-velocity     time/iter
  3595  3.4238e-06  1.2472e-10  9.0527e-11  0:00:19  405
  3596  3.7304e-06  1.2483e-10  9.3572e-11  0:00:19  404
  3597  3.5374e-06  1.2499e-10  9.5199e-11  0:00:19  403
  3598  3.4583e-06  1.2479e-10  9.6851e-11  0:00:18  402
  3599  3.7403e-06  1.2426e-10  9.8606e-11  0:00:18  401
  3600  3.4697e-06  1.2389e-10  9.8425e-11  0:00:18  400
  3601  3.2703e-06  1.2348e-10  9.8381e-11  0:00:18  399
  3602  3.4875e-06  1.2298e-10  9.8156e-11  0:00:19  398
  3603  3.1973e-06  1.2279e-10  9.6608e-11  0:00:19  397
  3604  3.0095e-06  1.2256e-10  9.5137e-11  0:00:19  396
  3605  3.2564e-06  1.2222e-10  9.3888e-11  0:00:19  395

  iter  continuity  x-velocity  y-velocity     time/iter
  3606  3.0031e-06  1.2209e-10  9.1206e-11  0:00:17  394
  3607  2.8721e-06  1.2193e-10  8.9316e-11  0:00:18  393
  3608  3.1659e-06  1.2175e-10  8.7778e-11  0:00:18  392
  3609  3.0143e-06  1.2201e-10  8.5536e-11  0:00:18  391
  3610  2.9807e-06  1.2229e-10  8.4274e-11  0:00:18  390
  3611  3.3434e-06  1.2260e-10  8.4058e-11  0:00:18  389
  3612  3.2272e-06  1.2305e-10  8.3258e-11  0:00:17  388
  3613  3.2050e-06  1.2332e-10  8.3983e-11  0:00:18  387
  3614  3.3252e-06  1.2341e-10  8.5451e-11  0:00:18  386
  3615  3.5586e-06  1.2319e-10  8.8227e-11  0:00:17  385
  3616  3.4785e-06  1.2348e-10  9.0512e-11  0:00:17  384

  iter  continuity  x-velocity  y-velocity     time/iter
  3617  3.4879e-06  1.2376e-10  9.2827e-11  0:00:16  383
  3618  3.7909e-06  1.2370e-10  9.5580e-11  0:00:17  382
  3619  3.5563e-06  1.2373e-10  9.6549e-11  0:00:17  381
  3620  3.4301e-06  1.2344e-10  9.7522e-11  0:00:18  380
  3621  3.6856e-06  1.2287e-10  9.8571e-11  0:00:17  379
  3622  3.3960e-06  1.2268e-10  9.7640e-11  0:00:17  378
  3623  3.1827e-06  1.2238e-10  9.6965e-11  0:00:18  377
  3624  3.4074e-06  1.2203e-10  9.6219e-11  0:00:17  376
  3625  3.1113e-06  1.2196e-10  9.4044e-11  0:00:17  375
  3626  2.9398e-06  1.2178e-10  9.2213e-11  0:00:17  374
  3627  2.9663e-06  1.2156e-10  9.0142e-11  0:00:17  373

  iter  continuity  x-velocity  y-velocity     time/iter
  3628  3.1107e-06  1.2131e-10  8.8465e-11  0:00:17  372
  3629  3.0008e-06  1.2147e-10  8.6253e-11  0:00:17  371
  3630  3.0377e-06  1.2176e-10  8.4653e-11  0:00:16  370
  3631  3.3224e-06  1.2199e-10  8.4153e-11  0:00:16  369
  3632  3.2360e-06  1.2244e-10  8.3026e-11  0:00:17  368
  3633  3.2493e-06  1.2277e-10  8.3202e-11  0:00:17  367
  3634  3.6099e-06  1.2282e-10  8.5040e-11  0:00:16  366
  3635  3.4861e-06  1.2294e-10  8.6351e-11  0:00:16  365
  3636  3.4504e-06  1.2286e-10  8.8893e-11  0:00:16  364
  3637  3.8267e-06  1.2287e-10  9.2250e-11  0:00:16  363
  3638  3.6469e-06  1.2313e-10  9.3806e-11  0:00:16  362

  iter  continuity  x-velocity  y-velocity     time/iter
  3639  3.5213e-06  1.2293e-10  9.5572e-11  0:00:16  361
  3640  3.8237e-06  1.2251e-10  9.7290e-11  0:00:16  360
  3641  3.5422e-06  1.2223e-10  9.7245e-11  0:00:16  359
  3642  3.3442e-06  1.2184e-10  9.7141e-11  0:00:16  358
  3643  3.5932e-06  1.2129e-10  9.7181e-11  0:00:16  357
  3644  3.2741e-06  1.2105e-10  9.5233e-11  0:00:15  356
  3645  3.0418e-06  1.2074e-10  9.3707e-11  0:00:17  355
  3646  3.2800e-06  1.2031e-10  9.2166e-11  0:00:16  354
  3647  3.0352e-06  1.2012e-10  8.9450e-11  0:00:17  353
  3648  2.9418e-06  1.1988e-10  8.7372e-11  0:00:16  352
  3649  3.2764e-06  1.1970e-10  8.5846e-11  0:00:16  351

  iter  continuity  x-velocity  y-velocity     time/iter
  3650  3.1317e-06  1.1989e-10  8.3319e-11  0:00:16  350
  3651  3.0967e-06  1.2010e-10  8.2097e-11  0:00:16  349
  3652  3.4833e-06  1.2023e-10  8.2029e-11  0:00:15  348
  3653  3.3605e-06  1.2049e-10  8.1239e-11  0:00:15  347
  3654  3.3255e-06  1.2044e-10  8.2235e-11  0:00:16  346
  3655  3.7033e-06  1.2018e-10  8.4646e-11  0:00:16  345
  3656  3.5700e-06  1.2006e-10  8.6604e-11  0:00:15  344
  3657  3.5185e-06  1.2011e-10  8.9165e-11  0:00:15  343
  3658  3.8834e-06  1.1988e-10  9.2158e-11  0:00:16  342
  3659  3.6516e-06  1.1969e-10  9.3136e-11  0:00:15  341
  3660  3.4652e-06  1.1917e-10  9.4262e-11  0:00:14  340

  iter  continuity  x-velocity  y-velocity     time/iter
  3661  3.7224e-06  1.1847e-10  9.5124e-11  0:00:15  339
  3662  3.4103e-06  1.1803e-10  9.4328e-11  0:00:15  338
  3663  3.1907e-06  1.1751e-10  9.3520e-11  0:00:15  337
  3664  3.4238e-06  1.1685e-10  9.2791e-11  0:00:14  336
  3665  3.1005e-06  1.1640e-10  9.0162e-11  0:00:15  335
  3666  2.8958e-06  1.1589e-10  8.8116e-11  0:00:15  334
  3667  3.1590e-06  1.1529e-10  8.6197e-11  0:00:15  333
  3668  2.9899e-06  1.1489e-10  8.3236e-11  0:00:15  332
  3669  2.9272e-06  1.1463e-10  8.1115e-11  0:00:14  331
  3670  3.2390e-06  1.1456e-10  7.9625e-11  0:00:15  330
  3671  3.1450e-06  1.1460e-10  7.7682e-11  0:00:14  329

  iter  continuity  x-velocity  y-velocity     time/iter
  3672  3.1296e-06  1.1463e-10  7.6999e-11  0:00:14  328
  3673  3.5010e-06  1.1445e-10  7.7687e-11  0:00:14  327
  3674  3.3724e-06  1.1421e-10  7.8007e-11  0:00:15  326
  3675  3.3174e-06  1.1382e-10  8.0036e-11  0:00:14  325
  3676  3.6675e-06  1.1331e-10  8.2933e-11  0:00:14  324
  3677  3.5040e-06  1.1338e-10  8.4817e-11  0:00:14  323
  3678  3.4055e-06  1.1307e-10  8.6741e-11  0:00:14  322
  3679  3.7069e-06  1.1232e-10  8.8832e-11  0:00:14  321
  3680  3.4140e-06  1.1176e-10  8.8794e-11  0:00:15  320
  3681  3.1883e-06  1.1094e-10  8.8877e-11  0:00:14  319
  3682  3.3893e-06  1.1013e-10  8.8728e-11  0:00:14  318

  iter  continuity  x-velocity  y-velocity     time/iter
  3683  3.0683e-06  1.0958e-10  8.7019e-11  0:00:15  317
  3684  2.8531e-06  1.0885e-10  8.5394e-11  0:00:14  316
  3685  3.0702e-06  1.0805e-10  8.3874e-11  0:00:14  315
  3686  2.8053e-06  1.0740e-10  8.0810e-11  0:00:14  314
  3687  2.6871e-06  1.0673e-10  7.8537e-11  0:00:14  313
  3688  2.9629e-06  1.0605e-10  7.6521e-11  0:00:13  312
  3689  2.8325e-06  1.0580e-10  7.3820e-11  0:00:13  311
  3690  2.7955e-06  1.0565e-10  7.2115e-11  0:00:14  310
  3691  3.1083e-06  1.0547e-10  7.1445e-11  0:00:14  309
  3692  3.0174e-06  1.0544e-10  7.0349e-11  0:00:14  308
  3693  2.9975e-06  1.0518e-10  7.0775e-11  0:00:13  307

  iter  continuity  x-velocity  y-velocity     time/iter
  3694  3.3498e-06  1.0458e-10  7.2776e-11  0:00:13  306
  3695  3.1949e-06  1.0413e-10  7.4132e-11  0:00:13  305
  3696  3.1119e-06  1.0377e-10  7.6387e-11  0:00:13  304
  3697  3.4072e-06  1.0346e-10  7.8835e-11  0:00:13  303
  3698  3.2061e-06  1.0311e-10  7.9853e-11  0:00:13  302
  3699  3.0589e-06  1.0244e-10  8.0786e-11  0:00:13  301
  3700  3.2839e-06  1.0151e-10  8.1761e-11  0:00:13  300
  3701  2.9812e-06  1.0082e-10  8.0735e-11  0:00:13  299
  3702  2.7461e-06  1.0003e-10  7.9989e-11  0:00:19  298
  3703  2.9178e-06  9.9200e-11  7.9039e-11  0:00:18  297
  3704  2.6419e-06  9.8568e-11  7.6771e-11  0:00:17  296

  iter  continuity  x-velocity  y-velocity     time/iter
  3705  2.4746e-06  9.7860e-11  7.4751e-11  0:00:16  295
  3706  2.6971e-06  9.7098e-11  7.3032e-11  0:00:16  294
  3707  2.5292e-06  9.6507e-11  7.0160e-11  0:00:15  293
  3708  2.4514e-06  9.6033e-11  6.8180e-11  0:00:36  292
  3709  2.7162e-06  9.5769e-11  6.6681e-11  0:00:31  291
  3710  2.6241e-06  9.5659e-11  6.4807e-11  0:00:28  290
  3711  2.6058e-06  9.5554e-11  6.4024e-11  0:00:25  289
  3712  2.9005e-06  9.5394e-11  6.4282e-11  0:00:22  288
  3713  2.7992e-06  9.5177e-11  6.4404e-11  0:00:20  287
  3714  2.7675e-06  9.4760e-11  6.5881e-11  0:00:19  286
  3715  3.0796e-06  9.4132e-11  6.8447e-11  0:00:18  285

  iter  continuity  x-velocity  y-velocity     time/iter
  3716  2.9175e-06  9.4037e-11  6.9752e-11  0:00:17  284
  3717  2.8153e-06  9.3769e-11  7.1469e-11  0:00:15  283
  3718  3.0643e-06  9.3203e-11  7.3099e-11  0:00:15  282
  3719  2.8410e-06  9.2725e-11  7.3366e-11  0:00:15  281
  3720  2.6775e-06  9.2022e-11  7.3516e-11  0:00:14  280
  3721  2.8665e-06  9.1219e-11  7.3743e-11  0:00:14  279
  3722  2.5888e-06  9.0672e-11  7.2278e-11  0:00:14  278
  3723  2.3888e-06  9.0013e-11  7.1153e-11  0:00:13  277
  3724  2.5579e-06  8.9339e-11  6.9876e-11  0:00:13  276
  3725  2.3341e-06  8.8831e-11  6.7577e-11  0:00:13  275
  3726  2.2242e-06  8.8307e-11  6.5698e-11  0:00:13  274

  iter  continuity  x-velocity  y-velocity     time/iter
  3727  2.4592e-06  8.7774e-11  6.4187e-11  0:00:12  273
  3728  2.3343e-06  8.7514e-11  6.1816e-11  0:00:12  272
  3729  2.2871e-06  8.7430e-11  6.0308e-11  0:00:12  271
  3730  2.5692e-06  8.7264e-11  5.9634e-11  0:00:12  270
  3731  2.4785e-06  8.7264e-11  5.8445e-11  0:00:12  269
  3732  2.4524e-06  8.7169e-11  5.8401e-11  0:00:12  268
  3733  2.7369e-06  8.6858e-11  5.9515e-11  0:00:12  267
  3734  2.6338e-06  8.6602e-11  6.0464e-11  0:00:12  266
  3735  2.5968e-06  8.6213e-11  6.2231e-11  0:00:11  265
  3736  2.8770e-06  8.5912e-11  6.4644e-11  0:00:12  264
  3737  2.7154e-06  8.5773e-11  6.5560e-11  0:00:12  263

  iter  continuity  x-velocity  y-velocity     time/iter
  3738  2.5961e-06  8.5303e-11  6.6692e-11  0:00:12  262
  3739  2.8058e-06  8.4691e-11  6.7712e-11  0:00:12  261
  3740  2.5713e-06  8.4194e-11  6.7393e-11  0:00:12  260
  3741  2.4063e-06  8.3587e-11  6.7038e-11  0:00:11  259
  3742  2.5719e-06  8.2947e-11  6.6798e-11  0:00:12  258
  3743  2.3237e-06  8.2462e-11  6.5000e-11  0:00:11  257
  3744  2.1505e-06  8.1903e-11  6.3583e-11  0:00:11  256
  3745  2.3287e-06  8.1293e-11  6.2164e-11  0:00:11  255
  3746  2.1639e-06  8.0870e-11  5.9891e-11  0:00:11  254
  3747  2.1084e-06  8.0416e-11  5.8111e-11  0:00:11  253
  3748  2.3341e-06  8.0126e-11  5.6770e-11  0:00:11  252

  iter  continuity  x-velocity  y-velocity     time/iter
  3749  2.2493e-06  8.0022e-11  5.4796e-11  0:00:11  251
  3750  2.2328e-06  7.9883e-11  5.3823e-11  0:00:11  250
  3751  2.4976e-06  7.9654e-11  5.3737e-11  0:00:11  249
  3752  2.4095e-06  7.9521e-11  5.3224e-11  0:00:11  248
  3753  2.3815e-06  7.9105e-11  5.3986e-11  0:00:11  247
  3754  2.6478e-06  7.8623e-11  5.5848e-11  0:00:11  246
  3755  2.5339e-06  7.8283e-11  5.7126e-11  0:00:11  245
  3756  2.4764e-06  7.8047e-11  5.8704e-11  0:00:11  244
  3757  2.7058e-06  7.7514e-11  6.0550e-11  0:00:11  243
  3758  2.5128e-06  7.7055e-11  6.0792e-11  0:00:11  242
  3759  2.6650e-06  7.6367e-11  6.1883e-11  0:00:11  241

  iter  continuity  x-velocity  y-velocity     time/iter
  3760  2.3751e-06  7.5744e-11  6.0922e-11  0:00:11  240
  3761  2.4871e-06  7.5065e-11  6.1144e-11  0:00:11  239
  3762  2.1797e-06  7.4457e-11  5.9245e-11  0:00:11  238
  3763  2.0106e-06  7.3772e-11  5.7896e-11  0:00:10  237
  3764  2.1400e-06  7.3032e-11  5.6467e-11  0:00:10  236
  3765  1.9977e-06  7.2451e-11  5.4211e-11  0:00:11  235
  3766  1.9255e-06  7.1835e-11  5.2323e-11  0:00:10  234
  3767  2.1289e-06  7.1308e-11  5.0823e-11  0:00:10  233
  3768  2.0552e-06  7.0988e-11  4.8750e-11  0:00:10  232
  3769  2.2515e-06  7.0610e-11  4.8037e-11  0:00:10  231
  3770  2.1457e-06  7.0330e-11  4.6685e-11  0:00:10  230

  iter  continuity  x-velocity  y-velocity     time/iter
  3771  2.1064e-06  6.9979e-11  4.6407e-11  0:00:10  229
  3772  2.3417e-06  6.9414e-11  4.7181e-11  0:00:10  228
  3773  2.2687e-06  6.8921e-11  4.7984e-11  0:00:10  227
  3774  2.4821e-06  6.8209e-11  5.0069e-11  0:00:10  226
  3775  2.2982e-06  6.7858e-11  5.0869e-11  0:00:10  225
  3776  2.4605e-06  6.7300e-11  5.2617e-11  0:00:10  224
  3777  2.2313e-06  6.6705e-11  5.2666e-11  0:00:10  223
  3778  2.3540e-06  6.5890e-11  5.3581e-11  0:00:09  222
  3779  2.0681e-06  6.5127e-11  5.2581e-11  0:00:10  221
  3780  2.1581e-06  6.4351e-11  5.2523e-11  0:00:10  220
  3781  1.8790e-06  6.3604e-11  5.0779e-11  0:00:10  219

  iter  continuity  x-velocity  y-velocity     time/iter
  3782  1.7228e-06  6.2779e-11  4.9359e-11  0:00:09  218
  3783  1.8507e-06  6.1953e-11  4.8011e-11  0:00:10  217
  3784  1.7268e-06  6.1198e-11  4.5736e-11  0:00:10  216
  3785  1.8682e-06  6.0403e-11  4.4331e-11  0:00:10  215
  3786  1.7335e-06  5.9815e-11  4.2069e-11  0:00:10  214
  3787  1.8718e-06  5.9334e-11  4.0869e-11  0:00:10  213
  3788  1.7876e-06  5.8915e-11  3.9224e-11  0:00:10  212
  3789  1.9622e-06  5.8414e-11  3.8925e-11  0:00:09  211
  3790  1.8522e-06  5.7990e-11  3.8148e-11  0:00:10  210
  3791  2.0317e-06  5.7333e-11  3.9038e-11  0:00:10  209
  3792  1.9097e-06  5.6736e-11  3.9513e-11  0:00:10  208

  iter  continuity  x-velocity  y-velocity     time/iter
  3793  2.0827e-06  5.5995e-11  4.1307e-11  0:00:10  207
  3794  1.9054e-06  5.5582e-11  4.1807e-11  0:00:10  206
  3795  2.0355e-06  5.4937e-11  4.3150e-11  0:00:10  205
  3796  1.8286e-06  5.4280e-11  4.3017e-11  0:00:09  204
  3797  1.9162e-06  5.3457e-11  4.3601e-11  0:00:09  203
  3798  1.6686e-06  5.2677e-11  4.2627e-11  0:00:09  202
  3799  1.7250e-06  5.1868e-11  4.2361e-11  0:00:09  201
  3800  1.4931e-06  5.1085e-11  4.0782e-11  0:00:09  200
  3801  1.5638e-06  5.0228e-11  3.9866e-11  0:00:09  199
  3802  1.3763e-06  4.9465e-11  3.7858e-11  0:00:09  198
  3803  1.4791e-06  4.8673e-11  3.6587e-11  0:00:09  197

  iter  continuity  x-velocity  y-velocity     time/iter
  3804  1.3536e-06  4.7961e-11  3.4593e-11  0:00:08  196
  3805  1.4586e-06  4.7388e-11  3.3355e-11  0:00:09  195
  3806  1.3763e-06  4.6966e-11  3.1716e-11  0:00:09  194
  3807  1.5106e-06  4.6507e-11  3.1069e-11  0:00:09  193
  3808  1.4268e-06  4.6112e-11  3.0079e-11  0:00:09  192
  3809  1.5631e-06  4.5657e-11  3.0302e-11  0:00:08  191
  3810  1.4734e-06  4.5119e-11  3.0303e-11  0:00:08  190
  3811  1.6098e-06  4.4489e-11  3.1488e-11  0:00:08  189
  3812  1.4805e-06  4.3979e-11  3.1988e-11  0:00:08  188
  3813  1.5872e-06  4.3564e-11  3.3183e-11  0:00:08  187
  3814  1.4449e-06  4.3086e-11  3.3370e-11  0:00:08  186

  iter  continuity  x-velocity  y-velocity     time/iter
  3815  1.5265e-06  4.2431e-11  3.4035e-11  0:00:08  185
  3816  1.3384e-06  4.1802e-11  3.3592e-11  0:00:08  184
  3817  1.3881e-06  4.1113e-11  3.3607e-11  0:00:08  183
  3818  1.2045e-06  4.0497e-11  3.2660e-11  0:00:08  182
  3819  1.2519e-06  3.9809e-11  3.2154e-11  0:00:08  181
  3820  1.0874e-06  3.9190e-11  3.0766e-11  0:00:08  180
  3821  1.1447e-06  3.8558e-11  2.9870e-11  0:00:08  179
  3822  1.0285e-06  3.8005e-11  2.8373e-11  0:00:07  178
  3823  1.1067e-06  3.7474e-11  2.7392e-11  0:00:07  177
  3824  1.0238e-06  3.7063e-11  2.6018e-11  0:00:08  176
  3825  1.1160e-06  3.6738e-11  2.5238e-11  0:00:08  175

  iter  continuity  x-velocity  y-velocity     time/iter
  3826  1.0553e-06  3.6486e-11  2.4288e-11  0:00:08  174
  3827  1.1571e-06  3.6220e-11  2.4015e-11  0:00:07  173
  3828  1.0945e-06  3.5990e-11  2.3612e-11  0:00:08  172
  3829  1.0796e-06  3.5644e-11  2.3794e-11  0:00:08  171
  3830  1.1916e-06  3.5226e-11  2.4521e-11  0:00:08  170
  3831  1.1293e-06  3.4878e-11  2.4994e-11  0:00:19  169
  3832  1.2191e-06  3.4626e-11  2.5935e-11  0:00:17  168
  3833  1.1232e-06  3.4390e-11  2.6214e-11  0:00:14  167
  3834  1.1977e-06  3.3978e-11  2.6882e-11  0:00:13  166
  3835  1.0707e-06  3.3602e-11  2.6722e-11  0:00:12  165
  3836  1.1222e-06  3.3138e-11  2.6931e-11  0:00:11  164

  iter  continuity  x-velocity  y-velocity     time/iter
  3837  9.8950e-07  3.2747e-11  2.6407e-11  0:00:10  163
! 3837 solution is converged

Calculation complete.
(cx-gui-do cx-activate-item "Information*OK")
(cx-gui-do cx-set-list-tree-selections "NavigationPane*Frame2*Table1*List_Tree2" (list "Results|Plots|XY Plot|xy-plot-1"))
(cx-gui-do cx-set-list-tree-selections "NavigationPane*Frame2*Table1*List_Tree2" (list "Results|Plots|XY Plot|xy-plot-1"))
(cx-gui-do cx-activate-item "NavigationPane*Frame2*Table1*List_Tree2")
(cx-gui-do cx-set-list-tree-selections "NavigationPane*Frame2*Table1*List_Tree2" (list "Results|Plots|XY Plot|xy-plot-1"))
(cx-gui-do cx-activate-item "Solution XY Plot*PanelButtons*PushButton1(OK)")
(cx-gui-do cx-activate-item "Solution XY Plot*PanelButtons*PushButton2(Cancel)")
(cx-gui-do cx-activate-item "Ribbon*Frame1*Frame2(Domain)*Table1*Table3(Mesh)*PushButton6(Scale)")
(cx-gui-do cx-activate-item "Scale Mesh*PanelButtons*PushButton1(Close)")
(cx-gui-do cx-activate-item "MenuBar*ReadSubMenu*Mesh...")
(cx-gui-do cx-activate-item "Read Mesh Options*PanelButtons*PushButton1(OK)")
(cx-gui-do cx-set-file-dialog-entries "Select File" '( "flatplate_1000x20.cgns") "All Files (*)")
Note: Rank = 0: Process affinity not being set (6).
Reading "C:/Users/y.chavali.176/OneDrive - Cranfield University/fm_assignment/flatplate_1000x20.cgns"...
Buffering for file scan...


Building...
     mesh
Error at host: inquire-cell-threads: invalid grid

Error: inquire-cell-threads: invalid grid
Error Object: ()

Error: inquire-cell-threads: invalid grid
Error Object: #f

Error: api-get-var: the object is not active
Error Object: setup/general/solver/time

Error: access: unbound variable
Error Object: get-var
(cx-gui-do cx-activate-item "Error*OK")
 Error in the fluent (fl) process : ended abnormally

===================================================================================
=   BAD TERMINATION OF ONE OF YOUR APPLICATION PROCESSES
=   RANK 0 PID 33808 RUNNING AT 37PCL046
=   EXIT STATUS: 1073807364 (40010004)
===================================================================================
(cx-gui-do cx-activate-item "Question*Cancel")
