Auto-Transcript Start Time:  16:06:15, 02 Nov 2025 GMT Standard Time 
Current Directory: "C:\Users\y.chavali.176\ICEM"

              Welcome to ANSYS Fluent 2025 R2

              Copyright 1987-2025 ANSYS, Inc. All Rights Reserved.
              Unauthorized use, distribution or duplication is prohibited.
              This product is subject to U.S. laws governing export and re-export.
              For full Legal Notice, see documentation.

Build Time: Jun 16 2025 10:46:43 EDT  Build Id: 10204  
 
Connected License Server List:	1055@cclic-2.central.cranfield.ac.uk

*********************************************
Info: Your license enables 4-way parallel execution.
For faster simulations, please start the application with the appropriate parallel options.
*********************************************


     --------------------------------------------------------------
     This is an academic version of ANSYS FLUENT. Usage of this product
     license is limited to the terms and conditions specified in your ANSYS
     license form, additional terms section.
     --------------------------------------------------------------
Host spawning Node 0 on machine "37PCL046" (win64).

-------------------------------------------------------------------------------
ID    Hostname  Core  O.S.         PID    Vendor                          
-------------------------------------------------------------------------------
n0    37PCL046  1/28  Windows-x64  35500  Intel(R) Core(TM) i7-14700      
host  37PCL046        Windows-x64  34156  Intel(R) Core(TM) i7-14700      

MPI Option Selected: intel
-------------------------------------------------------------------------------

Cleanup script file is C:\\Users\\y.chavali.176\\ICEM\\cleanup-fluent-37PCL046-34156.bat

Graphics driver currently in use: dx11


Posting ANSYS Product Improvement Program startup data
Done.
Note: Rank = 0: Process affinity not being set (6).
Reading "C:/Users/y.chavali.176/ICEM/COARSEOUTLET.msh"...
Buffering for file scan...

   20000 nodes.
   18981 quadrilateral cells, zone  9.
   36944 2D interior faces, zone 10.
      19 2D velocity-inlet faces, zone 11.
     999 2D wall faces, zone 12.
     999 2D wall faces, zone 13.
      19 2D pressure-outlet faces, zone 14.

Building...
     mesh
     materials,
     interface,
     domains,
     zones,
	outlet
	bottomwall
	topwall
	inlet
	int_fluid
	fluid
     parallel,
Done.

> (cx-gui-do cx-activate-item "Key Behavioral Changes*PanelButtons*PushButton1(OK)")
(cx-gui-do cx-activate-item "General*Table1*ButtonBox1(Mesh)*PushButton2(Display)")
(cx-gui-do cx-activate-item "Mesh Display*PanelButtons*PushButton1(OK)")
(cx-gui-do cx-activate-item "Mesh Display*PanelButtons*PushButton2(Cancel)")
(cx-use-window-id 51)
(dolly-camera -0.448655 -0.151644 0)
(cx-use-window-id 51)
(dolly-camera -0.355256 -0.118329 0)
(cx-use-window-id 51)
(dolly-camera -0.374738 0.0356134 0)
(cx-use-window-id 51)
(dolly-camera -0.24841 0.0192482 0)
(cx-gui-do cx-set-list-tree-selections "NavigationPane*Frame2*Table1*List_Tree2" (list "Setup|Models|Viscous (SST k-omega)"))
(cx-gui-do cx-list-tree-right-click "NavigationPane*Frame2*Table1*List_Tree2" )
(cx-gui-do cx-set-list-tree-selections "NavigationPane*Frame2*Table1*List_Tree2" (list "Setup|Models|Viscous (SST k-omega)"))
(cx-gui-do cx-set-list-tree-selections "NavigationPane*Frame2*Table1*List_Tree2" (list "Setup|Models|Viscous (SST k-omega)"))
(cx-gui-do cx-activate-item "NavigationPane*Frame2*Table1*List_Tree2")
(cx-gui-do cx-set-list-tree-selections "NavigationPane*Frame2*Table1*List_Tree2" (list "Setup|Models|Viscous (SST k-omega)"))
(cx-gui-do cx-set-toggle-button2 "Viscous Model*Table1*ToggleBox1(Model)*Laminar" #t)
(cx-gui-do cx-activate-item "Viscous Model*Table1*ToggleBox1(Model)*Laminar")
(cx-gui-do cx-activate-item "Viscous Model*PanelButtons*PushButton1(OK)")
(cx-gui-do cx-set-list-tree-selections "NavigationPane*Frame2*Table1*List_Tree2" (list "Setup|Models|Viscous (Laminar)"))
(cx-gui-do cx-set-list-tree-selections "NavigationPane*Frame2*Table1*List_Tree2" (list "Setup|Materials|Fluid|air"))
(cx-gui-do cx-set-list-tree-selections "NavigationPane*Frame2*Table1*List_Tree2" (list "Setup|Materials|Fluid|air"))
(cx-gui-do cx-activate-item "NavigationPane*Frame2*Table1*List_Tree2")
(cx-gui-do cx-set-list-tree-selections "NavigationPane*Frame2*Table1*List_Tree2" (list "Setup|Materials|Fluid|air"))
(cx-gui-do cx-activate-item "Create/Edit Materials*Table1*Frame1*Frame2*ButtonBox2*PushButton1(Fluent Database)")
(cx-gui-do cx-set-list-selections "Fluent Database Materials*Table1*Frame1*List1(Materials)" '( 574))
(cx-gui-do cx-activate-item "Fluent Database Materials*Table1*Frame1*List1(Materials)")
(cx-gui-do cx-activate-item "Fluent Database Materials*PanelButtons*PushButton6(Copy)")
(cx-gui-do cx-activate-item "Fluent Database Materials*PanelButtons*PushButton1(Close)")
(cx-gui-do cx-set-list-selections "Create/Edit Materials*Table1*Frame1*Table1*DropDownList4(Materials)" '( 1))
(cx-gui-do cx-activate-item "Create/Edit Materials*Table1*Frame1*Table1*DropDownList4(Materials)")
(cx-gui-do cx-set-real-entry-list "Create/Edit Materials*RealEntry16" '( 0.00102))
(cx-gui-do cx-set-real-entry-list "Create/Edit Materials*RealEntry10" '( 1000))
(cx-gui-do cx-activate-item "Create/Edit Materials*RealEntry10")
(cx-gui-do cx-activate-item "Create/Edit Materials*PanelButtons*PushButton3(Change/Create)")
(cx-gui-do cx-activate-item "Create/Edit Materials*PanelButtons*PushButton1(Close)")
(cx-gui-do cx-set-list-tree-selections "NavigationPane*Frame2*Table1*List_Tree2" (list ))
(cx-gui-do cx-set-list-tree-selections "NavigationPane*Frame2*Table1*List_Tree2" (list "Setup|Materials|Fluid|air"))
(cx-gui-do cx-list-tree-right-click "NavigationPane*Frame2*Table1*List_Tree2" )
(cx-gui-do cx-set-list-tree-selections "NavigationPane*Frame2*Table1*List_Tree2" (list "Setup|Cell Zone Conditions|Fluid"))
(cx-gui-do cx-set-list-tree-selections "NavigationPane*Frame2*Table1*List_Tree2" (list "Setup|Cell Zone Conditions|Fluid"))
(cx-gui-do cx-activate-item "NavigationPane*Frame2*Table1*List_Tree2")
(cx-gui-do cx-set-list-tree-selections "NavigationPane*Frame2*Table1*List_Tree2" (list "Setup|Cell Zone Conditions|Fluid"))
(cx-gui-do cx-activate-tab-index "Fluid*Frame2*Table3*Frame1" 0)
(cx-gui-do cx-activate-tab-index "Fluid*Frame2*Table3*Frame1" 1)
(cx-gui-do cx-activate-tab-index "Fluid*Frame2*Table3*Frame1" 0)
(cx-gui-do cx-activate-tab-index "Fluid*Frame2*Table3*Frame1" 2)
(cx-gui-do cx-activate-tab-index "Fluid*Frame2*Table3*Frame1" 0)
(cx-gui-do cx-activate-tab-index "Fluid*Frame2*Table3*Frame1" 2)
(cx-gui-do cx-activate-tab-index "Fluid*Frame2*Table3*Frame1" 0)
(cx-gui-do cx-activate-tab-index "Fluid*Frame2*Table3*Frame1" 3)
(cx-gui-do cx-activate-tab-index "Fluid*Frame2*Table3*Frame1" 0)
(cx-gui-do cx-activate-tab-index "Fluid*Frame2*Table3*Frame1" 4)
(cx-gui-do cx-activate-tab-index "Fluid*Frame2*Table3*Frame1" 0)
(cx-gui-do cx-activate-tab-index "Fluid*Frame2*Table3*Frame1" 5)
(cx-gui-do cx-activate-tab-index "Fluid*Frame2*Table3*Frame1" 0)
(cx-gui-do cx-activate-tab-index "Fluid*Frame2*Table3*Frame1" 6)
(cx-gui-do cx-activate-tab-index "Fluid*Frame2*Table3*Frame1" 0)
(cx-gui-do cx-activate-tab-index "Fluid*Frame2*Table3*Frame1" 7)
(cx-gui-do cx-activate-tab-index "Fluid*Frame2*Table3*Frame1" 0)
(cx-gui-do cx-activate-tab-index "Fluid*Frame2*Table3*Frame1" 8)
(cx-gui-do cx-activate-tab-index "Fluid*Frame2*Table3*Frame1" 0)
(cx-gui-do cx-activate-tab-index "Fluid*Frame2*Table3*Frame1" 9)
(cx-gui-do cx-activate-tab-index "Fluid*Frame2*Table3*Frame1" 0)
(cx-gui-do cx-set-list-selections "Fluid*Frame2*Table1*Table1*DropDownList1(Material Name)" '( 0))
(cx-gui-do cx-enable-apply-button "Fluid")
(cx-gui-do cx-activate-item "Fluid*Frame2*Table1*Table1*DropDownList1(Material Name)")
(cx-gui-do cx-activate-item "Fluid*PanelButtons*PushButton1(OK)")
(cx-gui-do cx-activate-item "Fluid*PanelButtons*PushButton2(Cancel)")
(cx-gui-do cx-set-list-tree-selections "NavigationPane*Frame2*Table1*List_Tree2" (list "Setup|Materials|Fluid|air"))
(cx-gui-do cx-list-tree-right-click "NavigationPane*Frame2*Table1*List_Tree2" )
(cx-gui-do cx-activate-item "MenuBar*PopupMenuTree-air*Delete")
(cx-gui-do cx-activate-item "Question*OK")
(cx-gui-do cx-set-list-tree-selections "NavigationPane*Frame2*Table1*List_Tree2" (list ))
(cx-gui-do cx-set-list-tree-selections "NavigationPane*Frame2*Table1*List_Tree2" (list "Setup|Boundary Conditions|Inlet|inlet (velocity-inlet, id=11)"))
(cx-gui-do cx-set-list-tree-selections "NavigationPane*Frame2*Table1*List_Tree2" (list "Setup|Boundary Conditions|Inlet|inlet (velocity-inlet, id=11)"))
(cx-gui-do cx-activate-item "NavigationPane*Frame2*Table1*List_Tree2")
(cx-gui-do cx-set-list-tree-selections "NavigationPane*Frame2*Table1*List_Tree2" (list "Setup|Boundary Conditions|Inlet|inlet (velocity-inlet, id=11)"))
(cx-gui-do cx-activate-tab-index "Velocity Inlet*Frame2*Frame2" 0)
(cx-gui-do cx-activate-tab-index "Velocity Inlet*Frame2*Frame2" 1)
(cx-gui-do cx-activate-tab-index "Velocity Inlet*Frame2*Frame2" 0)
(cx-gui-do cx-activate-tab-index "Velocity Inlet*Frame2*Frame2" 2)
(cx-gui-do cx-activate-tab-index "Velocity Inlet*Frame2*Frame2" 0)
(cx-gui-do cx-activate-tab-index "Velocity Inlet*Frame2*Frame2" 3)
(cx-gui-do cx-activate-tab-index "Velocity Inlet*Frame2*Frame2" 0)
(cx-gui-do cx-activate-tab-index "Velocity Inlet*Frame2*Frame2" 4)
(cx-gui-do cx-activate-tab-index "Velocity Inlet*Frame2*Frame2" 0)
(cx-gui-do cx-activate-tab-index "Velocity Inlet*Frame2*Frame2" 5)
(cx-gui-do cx-activate-tab-index "Velocity Inlet*Frame2*Frame2" 0)
(cx-gui-do cx-activate-tab-index "Velocity Inlet*Frame2*Frame2" 6)
(cx-gui-do cx-activate-tab-index "Velocity Inlet*Frame2*Frame2" 0)
(cx-gui-do cx-activate-tab-index "Velocity Inlet*Frame2*Frame2" 7)
(cx-gui-do cx-activate-tab-index "Velocity Inlet*Frame2*Frame2" 0)
(cx-gui-do cx-activate-tab-index "Velocity Inlet*Frame2*Frame2" 8)
(cx-gui-do cx-activate-tab-index "Velocity Inlet*Frame2*Frame2" 0)
(cx-gui-do cx-set-list-tree-selections "NavigationPane*Frame2*Table1*List_Tree2" (list "Setup|Boundary Conditions|Wall|bottomwall (wall, id=13)"))
(cx-gui-do cx-set-list-tree-selections "NavigationPane*Frame2*Table1*List_Tree2" (list "Setup|Boundary Conditions|Wall|bottomwall (wall, id=13)"))
(cx-gui-do cx-activate-item "NavigationPane*Frame2*Table1*List_Tree2")
(cx-gui-do cx-set-list-tree-selections "NavigationPane*Frame2*Table1*List_Tree2" (list "Setup|Boundary Conditions|Wall|bottomwall (wall, id=13)"))
(cx-gui-do cx-activate-tab-index "Wall*Frame4" 0)
(cx-gui-do cx-activate-tab-index "Wall*Frame4" 1)
(cx-gui-do cx-activate-tab-index "Wall*Frame4" 0)
(cx-gui-do cx-activate-tab-index "Wall*Frame4" 2)
(cx-gui-do cx-activate-tab-index "Wall*Frame4" 0)
(cx-gui-do cx-activate-tab-index "Wall*Frame4" 3)
(cx-gui-do cx-activate-tab-index "Wall*Frame4" 0)
(cx-gui-do cx-activate-tab-index "Wall*Frame4" 4)
(cx-gui-do cx-activate-tab-index "Wall*Frame4" 0)
(cx-gui-do cx-activate-tab-index "Wall*Frame4" 5)
(cx-gui-do cx-activate-tab-index "Wall*Frame4" 0)
(cx-gui-do cx-activate-tab-index "Wall*Frame4" 6)
(cx-gui-do cx-activate-tab-index "Wall*Frame4" 0)
(cx-gui-do cx-activate-tab-index "Wall*Frame4" 7)
(cx-gui-do cx-activate-tab-index "Wall*Frame4" 0)
(cx-gui-do cx-activate-tab-index "Wall*Frame4" 8)
(cx-gui-do cx-activate-tab-index "Wall*Frame4" 0)
(cx-gui-do cx-activate-tab-index "Wall*Frame4" 9)
(cx-gui-do cx-activate-tab-index "Wall*Frame4" 0)
(cx-gui-do cx-activate-tab-index "Wall*Frame4" 10)
(cx-gui-do cx-activate-tab-index "Wall*Frame4" 0)
(cx-gui-do cx-activate-tab-index "Wall*Frame4*Frame8(Wall Film)*Frame1*Frame2" 0)
(cx-gui-do cx-activate-tab-index "Wall*Frame4*Frame8(Wall Film)*Frame1*Frame2" 1)
(cx-gui-do cx-activate-tab-index "Wall*Frame4*Frame8(Wall Film)*Frame1*Frame2" 0)
(cx-gui-do cx-activate-tab-index "Wall*Frame4*Frame8(Wall Film)*Frame1*Frame2" 2)
(cx-gui-do cx-activate-tab-index "Wall*Frame4*Frame8(Wall Film)*Frame1*Frame2" 0)
(cx-gui-do cx-activate-tab-index "Wall*Frame4*Frame8(Wall Film)*Frame1*Frame2" 3)
(cx-gui-do cx-activate-tab-index "Wall*Frame4*Frame8(Wall Film)*Frame1*Frame2" 0)
(cx-gui-do cx-activate-tab-index "Wall*Frame4*Frame8(Wall Film)*Frame1*Frame2" 4)
(cx-gui-do cx-activate-tab-index "Wall*Frame4*Frame8(Wall Film)*Frame1*Frame2" 0)
(cx-gui-do cx-activate-tab-index "Wall*Frame4*Frame8(Wall Film)*Frame1*Frame2" 5)
(cx-gui-do cx-activate-tab-index "Wall*Frame4*Frame8(Wall Film)*Frame1*Frame2" 0)
(cx-gui-do cx-activate-tab-index "Wall*Frame4*Frame8(Wall Film)*Frame1*Frame2" 6)
(cx-gui-do cx-activate-tab-index "Wall*Frame4*Frame8(Wall Film)*Frame1*Frame2" 0)
(cx-gui-do cx-activate-item "Wall*PanelButtons*PushButton2(Cancel)")
(cx-gui-do cx-activate-item "Velocity Inlet*PanelButtons*PushButton2(Cancel)")
(cx-gui-do cx-set-list-tree-selections "NavigationPane*Frame2*Table1*List_Tree2" (list "Setup|Boundary Conditions|Internal|int_fluid (interior, id=10)"))
(cx-gui-do cx-set-list-tree-selections "NavigationPane*Frame2*Table1*List_Tree2" (list "Setup|Boundary Conditions|Internal|int_fluid (interior, id=10)"))
(cx-gui-do cx-activate-item "NavigationPane*Frame2*Table1*List_Tree2")
(cx-gui-do cx-set-list-tree-selections "NavigationPane*Frame2*Table1*List_Tree2" (list "Setup|Boundary Conditions|Internal|int_fluid (interior, id=10)"))
(cx-gui-do cx-activate-item "Interior*PanelButtons*PushButton2(Cancel)")
(cx-gui-do cx-set-list-tree-selections "NavigationPane*Frame2*Table1*List_Tree2" (list "Setup|Boundary Conditions|Outlet|outlet (pressure-outlet, id=14)"))
(cx-gui-do cx-set-list-tree-selections "NavigationPane*Frame2*Table1*List_Tree2" (list "Setup|Boundary Conditions|Outlet|outlet (pressure-outlet, id=14)"))
(cx-gui-do cx-activate-item "NavigationPane*Frame2*Table1*List_Tree2")
(cx-gui-do cx-set-list-tree-selections "NavigationPane*Frame2*Table1*List_Tree2" (list "Setup|Boundary Conditions|Outlet|outlet (pressure-outlet, id=14)"))
(cx-gui-do cx-activate-tab-index "Pressure Outlet*Frame2*Frame2" 0)
(cx-gui-do cx-activate-tab-index "Pressure Outlet*Frame2*Frame2" 1)
(cx-gui-do cx-activate-tab-index "Pressure Outlet*Frame2*Frame2" 0)
(cx-gui-do cx-activate-tab-index "Pressure Outlet*Frame2*Frame2" 2)
(cx-gui-do cx-activate-tab-index "Pressure Outlet*Frame2*Frame2" 0)
(cx-gui-do cx-activate-tab-index "Pressure Outlet*Frame2*Frame2" 3)
(cx-gui-do cx-activate-tab-index "Pressure Outlet*Frame2*Frame2" 0)
(cx-gui-do cx-activate-tab-index "Pressure Outlet*Frame2*Frame2" 4)
(cx-gui-do cx-activate-tab-index "Pressure Outlet*Frame2*Frame2" 0)
(cx-gui-do cx-activate-tab-index "Pressure Outlet*Frame2*Frame2" 5)
(cx-gui-do cx-activate-tab-index "Pressure Outlet*Frame2*Frame2" 0)
(cx-gui-do cx-activate-tab-index "Pressure Outlet*Frame2*Frame2" 6)
(cx-gui-do cx-activate-tab-index "Pressure Outlet*Frame2*Frame2" 0)
(cx-gui-do cx-activate-tab-index "Pressure Outlet*Frame2*Frame2" 7)
(cx-gui-do cx-activate-tab-index "Pressure Outlet*Frame2*Frame2" 0)
(cx-gui-do cx-activate-tab-index "Pressure Outlet*Frame2*Frame2" 8)
(cx-gui-do cx-activate-tab-index "Pressure Outlet*Frame2*Frame2" 0)
(cx-gui-do cx-activate-item "Pressure Outlet*PanelButtons*PushButton2(Cancel)")
(cx-gui-do cx-set-list-tree-selections "NavigationPane*Frame2*Table1*List_Tree2" (list "Solution|Monitors|Residual"))
(cx-gui-do cx-set-list-tree-selections "NavigationPane*Frame2*Table1*List_Tree2" (list "Solution|Monitors|Residual"))
(cx-gui-do cx-activate-item "NavigationPane*Frame2*Table1*List_Tree2")
(cx-gui-do cx-set-list-tree-selections "NavigationPane*Frame2*Table1*List_Tree2" (list "Solution|Monitors|Residual"))
(cx-gui-do cx-set-real-entry-list "Residual Monitors*Table1*Table2*Table1*Table1(Equations)*RealEntry11" '( 1e-09))
(cx-gui-do cx-set-real-entry-list "Residual Monitors*Table1*Table2*Table1*Table1(Equations)*RealEntry17" '( 1e-09))
(cx-gui-do cx-set-real-entry-list "Residual Monitors*Table1*Table2*Table1*Table1(Equations)*RealEntry23" '( 1e-09))
(cx-gui-do cx-activate-item "Residual Monitors*Table1*Table2*Table1*Table1(Equations)*RealEntry23")
(cx-gui-do cx-activate-item "Residual Monitors*Table1*Table2*Table1*Table1(Equations)*RealEntry23")
(cx-gui-do cx-activate-item "Residual Monitors*PanelButtons*PushButton1(OK)")
(cx-gui-do cx-set-list-tree-selections "NavigationPane*Frame2*Table1*List_Tree2" (list "Solution|Monitors|Residual"))
(cx-gui-do cx-set-list-tree-selections "NavigationPane*Frame2*Table1*List_Tree2" (list "Solution|Monitors|Residual"))
(cx-gui-do cx-activate-item "NavigationPane*Frame2*Table1*List_Tree2")
(cx-gui-do cx-set-list-tree-selections "NavigationPane*Frame2*Table1*List_Tree2" (list "Solution|Monitors|Residual"))
(cx-gui-do cx-activate-item "Residual Monitors*PanelButtons*PushButton2(Cancel)")
(cx-gui-do cx-set-list-tree-selections "NavigationPane*Frame2*Table1*List_Tree2" (list "Solution|Monitors|Residual"))
(cx-gui-do cx-set-list-tree-selections "NavigationPane*Frame2*Table1*List_Tree2" (list "Solution|Monitors|Residual"))
(cx-gui-do cx-activate-item "NavigationPane*Frame2*Table1*List_Tree2")
(cx-gui-do cx-set-list-tree-selections "NavigationPane*Frame2*Table1*List_Tree2" (list "Solution|Monitors|Residual"))
(cx-gui-do cx-activate-item "Residual Monitors*PanelButtons*PushButton2(Cancel)")
(cx-gui-do cx-set-list-tree-selections "NavigationPane*Frame2*Table1*List_Tree2" (list "Solution|Initialization"))
(cx-gui-do cx-set-list-tree-selections "NavigationPane*Frame2*Table1*List_Tree2" (list "Solution|Initialization"))
(cx-gui-do cx-activate-item "NavigationPane*Frame2*Table1*List_Tree2")
(cx-gui-do cx-set-list-tree-selections "NavigationPane*Frame2*Table1*List_Tree2" (list "Solution|Initialization"))
(cx-gui-do cx-set-toggle-button2 "Solution Initialization*Table1*ToggleBox3(Initialization Methods)*Standard Initialization" #t)
(cx-gui-do cx-activate-item "Solution Initialization*Table1*ToggleBox3(Initialization Methods)*Standard Initialization")
(cx-gui-do cx-set-list-selections "Solution Initialization*Table1*DropDownList1(Compute from)" '( 1))
(cx-gui-do cx-activate-item "Solution Initialization*Table1*DropDownList1(Compute from)")
(cx-gui-do cx-set-list-tree-selections "NavigationPane*Frame2*Table1*List_Tree2" (list "Setup|Boundary Conditions|Inlet|inlet (velocity-inlet, id=11)"))
(cx-gui-do cx-set-list-tree-selections "NavigationPane*Frame2*Table1*List_Tree2" (list "Setup|Boundary Conditions|Inlet|inlet (velocity-inlet, id=11)"))
(cx-gui-do cx-activate-item "NavigationPane*Frame2*Table1*List_Tree2")
(cx-gui-do cx-set-list-tree-selections "NavigationPane*Frame2*Table1*List_Tree2" (list "Setup|Boundary Conditions|Inlet|inlet (velocity-inlet, id=11)"))
(cx-gui-do cx-set-expression-entry "Velocity Inlet*Frame2*Frame2*Frame1(Momentum)*Table1*Table9*ExpressionEntry1(Velocity Magnitude)" '("0" . 0))
(cx-gui-do cx-set-expression-entry "Velocity Inlet*Frame2*Frame2*Frame1(Momentum)*Table1*Table9*ExpressionEntry1(Velocity Magnitude)" '("0" . 0))
(cx-gui-do cx-enable-apply-button "Velocity Inlet")
(cx-gui-do cx-set-expression-entry "Velocity Inlet*Frame2*Frame2*Frame1(Momentum)*Table1*Table9*ExpressionEntry1(Velocity Magnitude)" '("2.091E" . 0))
(cx-gui-do cx-set-expression-entry "Velocity Inlet*Frame2*Frame2*Frame1(Momentum)*Table1*Table9*ExpressionEntry1(Velocity Magnitude)" '("2.091e-05" . 0))
(cx-gui-do cx-activate-item "Velocity Inlet*Frame2*Frame2*Frame1(Momentum)*Table1*Table9*ExpressionEntry1(Velocity Magnitude)")
(cx-gui-do cx-set-expression-entry "Velocity Inlet*Frame2*Frame2*Frame1(Momentum)*Table1*Table9*ExpressionEntry1(Velocity Magnitude)" '("2.091e-05" . 0))
(cx-gui-do cx-activate-item "Velocity Inlet*PanelButtons*PushButton1(OK)")
(cx-gui-do cx-activate-item "Velocity Inlet*PanelButtons*PushButton1(OK)")
(cx-gui-do cx-activate-item "Velocity Inlet*PanelButtons*PushButton2(Cancel)")
(cx-gui-do cx-set-list-tree-selections "NavigationPane*Frame2*Table1*List_Tree2" (list "Solution|Initialization"))
(cx-gui-do cx-set-list-tree-selections "NavigationPane*Frame2*Table1*List_Tree2" (list "Solution|Initialization"))
(cx-gui-do cx-activate-item "NavigationPane*Frame2*Table1*List_Tree2")
(cx-gui-do cx-set-list-tree-selections "NavigationPane*Frame2*Table1*List_Tree2" (list "Solution|Initialization"))
(cx-gui-do cx-set-list-selections "Solution Initialization*Table1*DropDownList1(Compute from)" '( 1))
(cx-gui-do cx-activate-item "Solution Initialization*Table1*DropDownList1(Compute from)")
(cx-gui-do cx-activate-item "Solution Initialization*Table1*Frame9*PushButton1(Initialize)")
(cx-gui-do cx-set-list-tree-selections "NavigationPane*Frame2*Table1*List_Tree2" (list "Solution|Run Calculation"))
(cx-gui-do cx-set-list-tree-selections "NavigationPane*Frame2*Table1*List_Tree2" (list "Solution|Run Calculation"))
(cx-gui-do cx-activate-item "NavigationPane*Frame2*Table1*List_Tree2")
(cx-gui-do cx-set-list-tree-selections "NavigationPane*Frame2*Table1*List_Tree2" (list "Solution|Run Calculation"))
(cx-gui-do cx-set-integer-entry "Run Calculation*Table1*Table3(Parameters)*Table1*Table1*IntegerEntry1(Number of Iterations)" 1000)
(cx-gui-do cx-activate-item "Run Calculation*Table1*Table3(Parameters)*Table1*Table1*IntegerEntry1(Number of Iterations)")
(cx-gui-do cx-activate-item "Run Calculation*Table1*Table6(Solution Advancement)*Table1*PushButton3(Calculate)")


  iter  continuity  x-velocity  y-velocity     time/iter
     1  0.0000e+00  4.6278e-02  0.0000e+00  0:01:20  999
     2  1.0000e+00  2.3573e-02  0.0000e+00  0:01:45  998
     3  1.0000e+00  1.1806e-02  6.7720e-05  0:01:36  997
     4  8.2850e-01  5.9540e-03  0.0000e+00  0:01:26  996
     5  5.2803e-01  3.0181e-03  0.0000e+00  0:01:21  995
     6  4.3805e-01  1.5314e-03  2.2878e-05  0:01:15  994
     7  3.7457e-01  7.7394e-04  1.5207e-05  0:01:11  993
     8  2.7089e-01  3.9015e-04  9.4843e-06  0:01:04  992
     9  1.6930e-01  2.0011e-04  5.2629e-06  0:01:01  991
    10  9.8061e-02  1.0277e-04  2.9872e-06  0:01:00  990
    11  6.5154e-02  5.2107e-05  1.8232e-06  0:00:56  989

  iter  continuity  x-velocity  y-velocity     time/iter
    12  4.5772e-02  2.6213e-05  1.0265e-06  0:00:54  988
    13  2.8395e-02  1.3839e-05  5.4824e-07  0:00:49  987
    14  1.8293e-02  7.2942e-06  3.4038e-07  0:00:49  986
    15  1.4037e-02  3.7270e-06  2.4442e-07  0:00:48  985
    16  9.9633e-03  1.8503e-06  1.6364e-07  0:00:45  984
    17  6.3767e-03  1.0442e-06  1.0109e-07  0:00:46  983
    18  3.9536e-03  5.8407e-07  6.7670e-08  0:00:45  982
    19  2.8367e-03  3.0428e-07  4.9400e-08  0:00:42  981
    20  2.0565e-03  1.4920e-07  3.3721e-08  0:00:40  980
    21  1.3286e-03  9.6978e-08  2.1134e-08  0:00:41  979
    22  8.5443e-04  6.1151e-08  1.4030e-08  0:00:42  978

  iter  continuity  x-velocity  y-velocity     time/iter
    23  6.3789e-04  3.3728e-08  1.0326e-08  0:00:41  977
    24  4.6368e-04  1.6282e-08  7.1133e-09  0:00:39  976
    25  3.0862e-04  1.2580e-08  4.5330e-09  0:00:39  975
    26  2.0436e-04  8.7116e-09  3.0841e-09  0:00:38  974
    27  1.5233e-04  5.0602e-09  2.1983e-09  0:00:40  973
    28  1.1211e-04  2.5083e-09  1.5260e-09  0:00:38  972
    29  7.6194e-05  2.0030e-09  9.8024e-10  0:00:38  971
    30  5.0511e-05  1.4597e-09  6.5131e-10  0:00:37  970
    31  3.4992e-05  9.0282e-10  4.7319e-10  0:00:37  969
    32  2.5131e-05  4.6663e-10  3.3333e-10  0:00:36  968
    33  1.7434e-05  3.6957e-10  2.1790e-10  0:00:34  967

  iter  continuity  x-velocity  y-velocity     time/iter
    34  1.1889e-05  2.7722e-10  1.4275e-10  0:00:36  966
    35  8.3501e-06  1.7904e-10  1.0100e-10  0:00:37  965
    36  6.0151e-06  9.9326e-11  7.0720e-11  0:00:38  964
    37  4.2165e-06  6.8606e-11  4.7261e-11  0:00:38  963
    38  2.8865e-06  5.0914e-11  3.1507e-11  0:00:36  962
    39  1.9974e-06  3.3594e-11  2.1923e-11  0:00:37  961
    40  1.4139e-06  1.9383e-11  1.5353e-11  0:00:35  960
    41  9.9654e-07  1.2970e-11  1.0427e-11  0:00:36  959
    42  6.9562e-07  9.9436e-12  7.0150e-12  0:00:35  958
    43  4.8486e-07  6.9433e-12  4.8564e-12  0:00:37  957
    44  3.4489e-07  4.3285e-12  3.4173e-12  0:00:38  956

  iter  continuity  x-velocity  y-velocity     time/iter
    45  2.4393e-07  2.8072e-12  2.3670e-12  0:00:38  955
    46  1.7102e-07  2.1292e-12  1.6289e-12  0:00:37  954
    47  1.1912e-07  1.5587e-12  1.1361e-12  0:00:37  953
    48  8.3933e-08  1.0473e-12  8.0377e-13  0:00:36  952
    49  5.9328e-08  6.9846e-13  5.6203e-13  0:00:35  951
    50  4.1827e-08  5.1108e-13  3.8419e-13  0:00:34  950
    51  2.9474e-08  3.5872e-13  2.6786e-13  0:00:34  949
    52  2.0862e-08  2.4547e-13  1.9200e-13  0:00:35  948
    53  1.4769e-08  1.7646e-13  1.3499e-13  0:00:36  947
    54  1.0456e-08  1.2277e-13  9.5264e-14  0:00:36  946
    55  7.3648e-09  9.0369e-14  6.6915e-14  0:00:35  945

  iter  continuity  x-velocity  y-velocity     time/iter
    56  5.1920e-09  6.2989e-14  4.6938e-14  0:00:35  944
    57  3.6626e-09  4.5546e-14  3.3374e-14  0:00:33  943
    58  2.5916e-09  3.0944e-14  2.3516e-14  0:00:34  942
    59  1.8304e-09  2.1712e-14  1.6632e-14  0:00:35  941
    60  1.2920e-09  1.5797e-14  1.1803e-14  0:00:33  940
    61  9.1323e-10  1.1246e-14  8.4508e-15  0:00:35  939
!   61 solution is converged

Calculation complete.
(cx-gui-do cx-activate-item "Information*OK")
(cx-gui-do cx-set-list-tree-selections "NavigationPane*Frame2*Table1*List_Tree2" (list "Results|Graphics|Contours"))
(cx-gui-do cx-set-list-tree-selections "NavigationPane*Frame2*Table1*List_Tree2" (list "Results|Graphics|Contours"))
(cx-gui-do cx-activate-item "NavigationPane*Frame2*Table1*List_Tree2")
(cx-gui-do cx-set-list-tree-selections "NavigationPane*Frame2*Table1*List_Tree2" (list "Results|Graphics|Contours"))
(cx-gui-do cx-set-list-selections "Contours*Table1*Frame3*Table1*DropDownList1(Contours of)" '( 2))
(cx-gui-do cx-activate-item "Contours*Table1*Frame3*Table1*DropDownList1(Contours of)")
(cx-gui-do cx-set-list-selections "Contours*Table1*Frame3*Table1*DropDownList2" '( 1))
(cx-gui-do cx-activate-item "Contours*Table1*Frame3*Table1*DropDownList2")
(cx-gui-do cx-activate-item "Contours*PanelButtons*PushButton1(OK)")
Creating zone surface for fluid zone
(cx-gui-do cx-activate-item "Contours*PanelButtons*PushButton2(Cancel)")
(cx-use-window-id 51)
(dolly-camera 2.44365 0.57144 0)
(cx-use-window-id 51)
(dolly-camera -0.0823553 -0.160189 0)
(cx-use-window-id 51)
(dolly-camera -0.153164 -0.0676907 0)
(cx-gui-do cx-activate-item "Ribbon*Frame1*Frame2(Domain)*Table1*Table3(Surface)*PushButton1(Create)")
(cx-gui-do cx-activate-item "MenuBar*PopupMenuCreate*Line/Rake...")
(cx-gui-do cx-set-real-entry-list "Line/Rake Surface*Table1*Frame5(End Points)*Table1*RealEntry5(y1)" '( 10))
(cx-gui-do cx-activate-item "Line/Rake Surface*PanelButtons*PushButton1(OK)")
(cx-gui-do cx-set-list-tree-selections "NavigationPane*Frame2*Table1*List_Tree2" (list "Results|Plots|XY Plot"))
(cx-gui-do cx-set-list-tree-selections "NavigationPane*Frame2*Table1*List_Tree2" (list "Results|Plots|XY Plot"))
(cx-gui-do cx-activate-item "NavigationPane*Frame2*Table1*List_Tree2")
(cx-gui-do cx-set-list-tree-selections "NavigationPane*Frame2*Table1*List_Tree2" (list "Results|Plots|XY Plot"))
(cx-gui-do cx-set-list-selections "Solution XY Plot*Table1*Table3*Frame3*List1(Surfaces)" '( 4))
(cx-gui-do cx-activate-item "Solution XY Plot*Table1*Table3*Frame3*List1(Surfaces)")
(cx-gui-do cx-set-list-selections "Solution XY Plot*Table1*Table3*Table1*DropDownList1(Y Axis Function)" '( 2))
(cx-gui-do cx-activate-item "Solution XY Plot*Table1*Table3*Table1*DropDownList1(Y Axis Function)")
(cx-gui-do cx-set-list-selections "Solution XY Plot*Table1*Table3*Table1*DropDownList2" '( 1))
(cx-gui-do cx-activate-item "Solution XY Plot*Table1*Table3*Table1*DropDownList2")
(cx-gui-do cx-activate-item "Solution XY Plot*PanelButtons*PushButton1(OK)")
(cx-gui-do cx-activate-item "Solution XY Plot*PanelButtons*PushButton2(Cancel)")
(cx-gui-do cx-set-list-tree-selections "NavigationPane*Frame2*Table1*List_Tree2" (list "Results|Surfaces|line-6"))
(cx-gui-do cx-set-list-tree-selections "NavigationPane*Frame2*Table1*List_Tree2" (list "Results|Surfaces|line-6"))
(cx-gui-do cx-activate-item "NavigationPane*Frame2*Table1*List_Tree2")
(cx-gui-do cx-set-list-tree-selections "NavigationPane*Frame2*Table1*List_Tree2" (list "Results|Surfaces|line-6"))
(cx-gui-do cx-activate-item "Line/Rake Surface*PanelButtons*PushButton2(Cancel)")
(cx-gui-do cx-set-list-tree-selections "NavigationPane*Frame2*Table1*List_Tree2" (list "Results|Surfaces|line-6"))
(cx-gui-do cx-set-list-tree-selections "NavigationPane*Frame2*Table1*List_Tree2" (list "Results|Surfaces|line-6"))
(cx-gui-do cx-activate-item "NavigationPane*Frame2*Table1*List_Tree2")
(cx-gui-do cx-set-list-tree-selections "NavigationPane*Frame2*Table1*List_Tree2" (list "Results|Surfaces|line-6"))
(cx-gui-do cx-set-real-entry-list "Line/Rake Surface*Table1*Frame5(End Points)*Table1*RealEntry4(x1)" '( 10))
(cx-gui-do cx-set-real-entry-list "Line/Rake Surface*Table1*Frame5(End Points)*Table1*RealEntry5(y1)" '( 0))
(cx-gui-do cx-activate-item "Line/Rake Surface*PanelButtons*PushButton1(OK)")
(cx-gui-do cx-set-list-tree-selections "NavigationPane*Frame2*Table1*List_Tree2" (list "Results|Plots|XY Plot"))
(cx-gui-do cx-set-list-tree-selections "NavigationPane*Frame2*Table1*List_Tree2" (list "Results|Plots|XY Plot"))
(cx-gui-do cx-activate-item "NavigationPane*Frame2*Table1*List_Tree2")
(cx-gui-do cx-set-list-tree-selections "NavigationPane*Frame2*Table1*List_Tree2" (list "Results|Plots|XY Plot"))
(cx-gui-do cx-set-list-tree-selections "NavigationPane*Frame2*Table1*List_Tree2" (list "Results|Plots|XY Plot|xy-plot-1"))
(cx-gui-do cx-set-list-tree-selections "NavigationPane*Frame2*Table1*List_Tree2" (list "Results|Plots|XY Plot|xy-plot-1"))
(cx-gui-do cx-activate-item "NavigationPane*Frame2*Table1*List_Tree2")
(cx-gui-do cx-set-list-tree-selections "NavigationPane*Frame2*Table1*List_Tree2" (list "Results|Plots|XY Plot|xy-plot-1"))
(cx-gui-do cx-activate-item "Solution XY Plot*PanelButtons*PushButton1(OK)")
(cx-gui-do cx-activate-item "Solution XY Plot*PanelButtons*PushButton2(Cancel)")
(cx-gui-do cx-activate-item "ToolBar*Pointer*translate")
(cx-gui-do cx-set-list-tree-selections "NavigationPane*Frame2*Table1*List_Tree2" (list "Setup|Boundary Conditions|Inlet|inlet (velocity-inlet, id=11)"))
(cx-gui-do cx-set-list-tree-selections "NavigationPane*Frame2*Table1*List_Tree2" (list "Setup|Boundary Conditions|Inlet|inlet (velocity-inlet, id=11)"))
(cx-gui-do cx-activate-item "NavigationPane*Frame2*Table1*List_Tree2")
(cx-gui-do cx-set-list-tree-selections "NavigationPane*Frame2*Table1*List_Tree2" (list "Setup|Boundary Conditions|Inlet|inlet (velocity-inlet, id=11)"))
(cx-gui-do cx-enable-apply-button "Velocity Inlet")
(cx-gui-do cx-set-expression-entry "Velocity Inlet*Frame2*Frame2*Frame1(Momentum)*Table1*Table9*ExpressionEntry1(Velocity Magnitude)" '("0.00010455" . 0))
(cx-gui-do cx-set-expression-entry "Velocity Inlet*Frame2*Frame2*Frame1(Momentum)*Table1*Table9*ExpressionEntry1(Velocity Magnitude)" '("0.00010455" . 0))
(cx-gui-do cx-activate-item "Velocity Inlet*PanelButtons*PushButton1(OK)")
(cx-gui-do cx-activate-item "Velocity Inlet*PanelButtons*PushButton2(Cancel)")
(cx-gui-do cx-set-list-tree-selections "NavigationPane*Frame2*Table1*List_Tree2" (list "Solution|Initialization"))
(cx-gui-do cx-set-list-tree-selections "NavigationPane*Frame2*Table1*List_Tree2" (list "Solution|Initialization"))
(cx-gui-do cx-activate-item "NavigationPane*Frame2*Table1*List_Tree2")
(cx-gui-do cx-set-list-tree-selections "NavigationPane*Frame2*Table1*List_Tree2" (list "Solution|Initialization"))
(cx-gui-do cx-activate-item "Line/Rake Surface*PanelButtons*PushButton2(Cancel)")
(cx-gui-do cx-set-real-entry-list "Solution Initialization*Table1*Table7(Initial Values)*RealEntry2(X Velocity)" '( 0.00010445))
(cx-gui-do cx-activate-item "Solution Initialization*Table1*Table7(Initial Values)*RealEntry2(X Velocity)")
(cx-gui-do cx-activate-item "Solution Initialization*Table1*Frame9*PushButton1(Initialize)")
(cx-gui-do cx-activate-item "Question*OK")
(cx-gui-do cx-set-list-tree-selections "NavigationPane*Frame2*Table1*List_Tree2" (list "Solution|Run Calculation"))
(cx-gui-do cx-set-list-tree-selections "NavigationPane*Frame2*Table1*List_Tree2" (list "Solution|Run Calculation"))
(cx-gui-do cx-activate-item "NavigationPane*Frame2*Table1*List_Tree2")
(cx-gui-do cx-set-list-tree-selections "NavigationPane*Frame2*Table1*List_Tree2" (list "Solution|Run Calculation"))
(cx-gui-do cx-activate-item "Run Calculation*Table1*Table6(Solution Advancement)*Table1*PushButton3(Calculate)")


  iter  continuity  x-velocity  y-velocity     time/iter
     1  1.0000e+00  3.8438e-02  0.0000e+00  0:00:41  999
     2  1.0000e+00  1.9232e-02  5.4980e-05  0:00:47  998
     3  1.0000e+00  1.0098e-02  5.3231e-05  0:00:47  997
     4  8.0745e-01  5.3087e-03  3.9159e-05  0:00:47  996
     5  5.5568e-01  2.7943e-03  2.7541e-05  0:00:47  995
     6  4.0302e-01  1.4708e-03  1.9636e-05  0:00:48  994
     7  2.9837e-01  7.7277e-04  1.3224e-05  0:00:47  993
     8  2.0880e-01  4.0514e-04  8.3198e-06  0:00:47  992
     9  1.4138e-01  2.1348e-04  4.8861e-06  0:00:47  991
    10  9.2544e-02  1.1289e-04  2.8745e-06  0:00:44  990
    11  5.8984e-02  5.9879e-05  1.7107e-06  0:00:45  989

  iter  continuity  x-velocity  y-velocity     time/iter
    12  3.6996e-02  3.1828e-05  1.0328e-06  0:00:46  988
    13  2.3213e-02  1.6961e-05  6.3799e-07  0:00:46  987
    14  1.4744e-02  9.0773e-06  3.9821e-07  0:00:45  986
    15  9.4291e-03  4.8603e-06  2.4549e-07  0:00:45  985
    16  6.0748e-03  2.6077e-06  1.5295e-07  0:00:45  984
    17  3.9298e-03  1.4028e-06  9.5723e-08  0:01:14  983
    18  2.5445e-03  7.5698e-07  6.0061e-08  0:01:08  982
    19  1.6514e-03  4.1012e-07  3.7807e-08  0:01:04  981
    20  1.0711e-03  2.2388e-07  2.4416e-08  0:01:01  980
    21  6.9698e-04  1.2313e-07  1.5698e-08  0:00:57  979
    22  4.5459e-04  6.8157e-08  1.0049e-08  0:00:53  978

  iter  continuity  x-velocity  y-velocity     time/iter
    23  2.9768e-04  3.8087e-08  6.3918e-09  0:00:51  977
    24  1.9558e-04  2.1551e-08  4.0458e-09  0:00:47  976
    25  1.2880e-04  1.2425e-08  2.6270e-09  0:00:48  975
    26  8.4956e-05  7.2683e-09  1.6953e-09  0:00:46  974
    27  5.6080e-05  4.2961e-09  1.0878e-09  0:00:44  973
    28  3.7053e-05  2.5696e-09  6.9633e-10  0:00:42  972
    29  2.4500e-05  1.5597e-09  4.4492e-10  0:00:42  971
    30  1.6203e-05  9.5246e-10  2.8355e-10  0:00:40  970
    31  1.0722e-05  5.8445e-10  1.8066e-10  0:00:41  969
    32  7.0960e-06  3.6020e-10  1.1512e-10  0:00:40  968
    33  4.6964e-06  2.2319e-10  7.3470e-11  0:00:39  967

  iter  continuity  x-velocity  y-velocity     time/iter
    34  3.1016e-06  1.4164e-10  4.8727e-11  0:00:38  966
    35  2.0577e-06  9.1169e-11  3.2165e-11  0:00:39  965
    36  1.3662e-06  5.7927e-11  2.0434e-11  0:00:37  964
    37  9.0937e-07  3.7416e-11  1.3563e-11  0:00:37  963
    38  6.0498e-07  2.4076e-11  8.6457e-12  0:00:35  962
    39  4.0267e-07  1.5440e-11  5.5580e-12  0:01:42  961
    40  2.6848e-07  1.0065e-11  3.7220e-12  0:01:29  960
    41  1.7927e-07  6.5336e-12  2.4040e-12  0:01:19  959
    42  1.1997e-07  4.2806e-12  1.6140e-12  0:01:11  958
    43  8.0207e-08  2.7971e-12  1.0454e-12  0:01:04  957
    44  5.3700e-08  1.8411e-12  7.0352e-13  0:00:58  956

  iter  continuity  x-velocity  y-velocity     time/iter
    45  3.5879e-08  1.2051e-12  4.5577e-13  0:00:53  955
    46  2.4038e-08  7.9571e-13  3.0657e-13  0:00:49  954
    47  1.6113e-08  5.3082e-13  2.0559e-13  0:00:46  953
    48  1.0805e-08  3.5457e-13  1.3753e-13  0:00:44  952
    49  7.2469e-09  2.3756e-13  9.1924e-14  0:00:40  951
    50  4.8565e-09  1.5851e-13  6.1406e-14  0:00:39  950
    51  3.2525e-09  1.0616e-13  4.1040e-14  0:00:39  949
    52  2.1779e-09  7.0955e-14  2.7391e-14  0:00:38  948
    53  1.4581e-09  4.7246e-14  1.8263e-14  0:00:36  947
    54  9.7584e-10  3.1269e-14  1.2182e-14  0:00:38  946
!   54 solution is converged

Calculation complete.
(cx-gui-do cx-activate-item "Information*OK")
(cx-gui-do cx-set-list-tree-selections "NavigationPane*Frame2*Table1*List_Tree2" (list "Results|Graphics|Contours"))
(cx-gui-do cx-set-list-tree-selections "NavigationPane*Frame2*Table1*List_Tree2" (list "Results|Graphics|Contours"))
(cx-gui-do cx-activate-item "NavigationPane*Frame2*Table1*List_Tree2")
(cx-gui-do cx-set-list-tree-selections "NavigationPane*Frame2*Table1*List_Tree2" (list "Results|Graphics|Contours"))
(cx-gui-do cx-activate-item "Contours*PanelButtons*PushButton2(Cancel)")
(cx-gui-do cx-set-list-tree-selections "NavigationPane*Frame2*Table1*List_Tree2" (list "Results|Graphics|Contours|contour-1"))
(cx-gui-do cx-set-list-tree-selections "NavigationPane*Frame2*Table1*List_Tree2" (list "Results|Graphics|Contours|contour-1"))
(cx-gui-do cx-activate-item "NavigationPane*Frame2*Table1*List_Tree2")
(cx-gui-do cx-set-list-tree-selections "NavigationPane*Frame2*Table1*List_Tree2" (list "Results|Graphics|Contours|contour-1"))
(cx-gui-do cx-activate-item "Contours*PanelButtons*PushButton1(OK)")
(cx-gui-do cx-activate-item "Contours*PanelButtons*PushButton2(Cancel)")
(cx-gui-do cx-set-list-tree-selections "NavigationPane*Frame2*Table1*List_Tree2" (list "Results|Graphics|Contours|contour-1"))
(cx-gui-do cx-set-list-tree-selections "NavigationPane*Frame2*Table1*List_Tree2" (list "Results|Graphics|Contours|contour-1"))
(cx-gui-do cx-activate-item "NavigationPane*Frame2*Table1*List_Tree2")
(cx-gui-do cx-set-list-tree-selections "NavigationPane*Frame2*Table1*List_Tree2" (list "Results|Graphics|Contours|contour-1"))
(cx-gui-do cx-activate-item "Contours*PanelButtons*PushButton1(OK)")
(cx-gui-do cx-activate-item "Contours*PanelButtons*PushButton2(Cancel)")
(cx-gui-do cx-set-list-tree-selections "NavigationPane*Frame2*Table1*List_Tree2" (list "Results|Plots|XY Plot|xy-plot-1"))
(cx-gui-do cx-set-list-tree-selections "NavigationPane*Frame2*Table1*List_Tree2" (list "Results|Plots|XY Plot|xy-plot-1"))
(cx-gui-do cx-activate-item "NavigationPane*Frame2*Table1*List_Tree2")
(cx-gui-do cx-set-list-tree-selections "NavigationPane*Frame2*Table1*List_Tree2" (list "Results|Plots|XY Plot|xy-plot-1"))
(cx-gui-do cx-activate-item "Solution XY Plot*PanelButtons*PushButton1(OK)")
(cx-gui-do cx-activate-item "Solution XY Plot*PanelButtons*PushButton2(Cancel)")
(cx-gui-do cx-activate-item "Ribbon*Frame1*Frame2(Domain)*Table1*Table3(Mesh)*PushButton6(Scale)")
(cx-gui-do cx-set-toggle-button2 "Scale Mesh*Table1*Table2(Scaling)*ToggleBox1*Specify Scaling Factors" #t)
(cx-gui-do cx-activate-item "Scale Mesh*Table1*Table2(Scaling)*ToggleBox1*Specify Scaling Factors")
(cx-gui-do cx-set-real-entry-list "Scale Mesh*Table1*Table2(Scaling)*Frame3(Scaling Factors)*RealEntry1(X)" '( 5))
(cx-gui-do cx-activate-item "Scale Mesh*Table1*Table2(Scaling)*PushButton5(Unscale)")
(cx-gui-do cx-activate-item "Scale Mesh*PanelButtons*PushButton1(Close)")
(cx-gui-do cx-set-list-tree-selections "NavigationPane*Frame2*Table1*List_Tree2" (list "Solution|Initialization"))
(cx-gui-do cx-set-list-tree-selections "NavigationPane*Frame2*Table1*List_Tree2" (list "Solution|Initialization"))
(cx-gui-do cx-activate-item "NavigationPane*Frame2*Table1*List_Tree2")
(cx-gui-do cx-set-list-tree-selections "NavigationPane*Frame2*Table1*List_Tree2" (list "Solution|Initialization"))
(cx-gui-do cx-set-list-selections "Solution Initialization*Table1*DropDownList1(Compute from)" '( 1))
(cx-gui-do cx-activate-item "Solution Initialization*Table1*DropDownList1(Compute from)")
(cx-gui-do cx-activate-item "Solution Initialization*Table1*Frame9*PushButton1(Initialize)")
(cx-gui-do cx-activate-item "Question*OK")
(cx-gui-do cx-set-list-tree-selections "NavigationPane*Frame2*Table1*List_Tree2" (list "Solution|Run Calculation"))
(cx-gui-do cx-set-list-tree-selections "NavigationPane*Frame2*Table1*List_Tree2" (list "Solution|Run Calculation"))
(cx-gui-do cx-activate-item "NavigationPane*Frame2*Table1*List_Tree2")
(cx-gui-do cx-set-list-tree-selections "NavigationPane*Frame2*Table1*List_Tree2" (list "Solution|Run Calculation"))
(cx-gui-do cx-activate-item "Run Calculation*Table1*Table6(Solution Advancement)*Table1*PushButton3(Calculate)")


  iter  continuity  x-velocity  y-velocity     time/iter
     1  0.0000e+00  3.3349e-03  0.0000e+00  0:00:42  999
     2  1.0000e+00  1.8784e-03  1.1655e-04  0:00:43  998

 Reversed flow on 4 faces (21.1% area) of pressure-outlet 14.
     3  1.0000e+00  1.1461e-03  8.8371e-05  0:00:43  997

 Reversed flow on 6 faces (31.6% area) of pressure-outlet 14.
     4  1.0000e+00  6.7827e-04  7.7242e-05  0:00:40  996

 Reversed flow on 4 faces (21.1% area) of pressure-outlet 14.
     5  8.1702e-01  3.6806e-04  4.5978e-05  0:00:42  995

 Reversed flow on 2 faces (10.5% area) of pressure-outlet 14.
     6  5.8662e-01  2.4636e-04  2.4092e-05  0:00:42  994
     7  5.3349e-01  2.0764e-04  1.7483e-05  0:00:41  993
     8  7.4827e-01  1.9011e-04  1.3216e-05  0:00:40  992
     9  1.0548e+00  1.3311e-04  1.5343e-05  0:00:42  991

 Reversed flow on 1 face (5.3% area) of pressure-outlet 14.
    10  9.6738e-01  1.0163e-04  1.8782e-05  0:00:42  990

 Reversed flow on 1 face (5.3% area) of pressure-outlet 14.
    11  6.7099e-01  9.9905e-05  1.4405e-05  0:00:42  989

  iter  continuity  x-velocity  y-velocity     time/iter
    12  3.4657e-01  1.3936e-04  9.1262e-06  0:00:42  988
    13  8.3383e-01  1.9235e-04  1.7409e-05  0:00:43  987

 Reversed flow on 7 faces (36.8% area) of pressure-outlet 14.
    14  1.3007e+00  3.2124e-04  7.3430e-05  0:00:42  986

 Reversed flow on 6 faces (31.6% area) of pressure-outlet 14.
    15  1.2492e+00  2.7809e-04  1.0387e-04  0:00:41  985

 Reversed flow on 4 faces (21.1% area) of pressure-outlet 14.
    16  1.1580e+00  2.0886e-04  7.8691e-05  0:00:39  984

 Reversed flow on 2 faces (10.5% area) of pressure-outlet 14.
    17  1.0700e+00  1.9775e-04  5.4535e-05  0:00:41  983
    18  1.5677e+00  1.8733e-04  3.2770e-05  0:00:40  982

 Reversed flow on 1 face (5.3% area) of pressure-outlet 14.
    19  1.3360e+00  2.7289e-04  2.9893e-05  0:00:40  981

 Reversed flow on 5 faces (26.3% area) of pressure-outlet 14.
    20  1.4578e+00  3.1286e-04  1.4393e-04  0:00:39  980

 Reversed flow on 4 faces (21.1% area) of pressure-outlet 14.
    21  1.6217e+00  1.4340e-04  9.4481e-05  0:00:38  979

 Reversed flow on 2 faces (10.5% area) of pressure-outlet 14.
    22  1.0028e+00  1.6958e-04  4.6595e-05  0:00:39  978

  iter  continuity  x-velocity  y-velocity     time/iter
    23  1.0551e+00  2.2689e-04  2.7933e-05  0:00:40  977

 Reversed flow on 4 faces (21.1% area) of pressure-outlet 14.
    24  1.6500e+00  4.6261e-04  3.5916e-05  0:00:40  976

 Reversed flow on 8 faces (42.1% area) of pressure-outlet 14.
    25  1.9458e+00  3.6228e-04  1.2792e-04  0:00:38  975

 Reversed flow on 4 faces (21.1% area) of pressure-outlet 14.
    26  1.5406e+00  2.1420e-04  8.7505e-05  0:00:38  974

 Reversed flow on 2 faces (10.5% area) of pressure-outlet 14.
    27  9.8986e-01  2.4633e-04  5.6378e-05  0:00:37  973

 Reversed flow on 2 faces (10.5% area) of pressure-outlet 14.
    28  1.6343e+00  2.1072e-04  4.4116e-05  0:00:40  972
    29  1.6673e+00  1.6485e-04  3.4547e-05  0:00:40  971

 Reversed flow on 3 faces (15.8% area) of pressure-outlet 14.
    30  1.5031e+00  2.2211e-04  7.3979e-05  0:00:40  970

 Reversed flow on 4 faces (21.1% area) of pressure-outlet 14.
    31  1.3114e+00  2.2798e-04  1.2513e-04  0:00:38  969

 Reversed flow on 2 faces (10.5% area) of pressure-outlet 14.
    32  1.5696e+00  1.3820e-04  6.6154e-05  0:00:38  968

 Reversed flow on 2 faces (10.5% area) of pressure-outlet 14.
    33  1.1895e+00  1.8989e-04  4.5121e-05  0:00:38  967

  iter  continuity  x-velocity  y-velocity     time/iter
    34  1.2401e+00  1.6258e-04  2.1917e-05  0:00:37  966

 Reversed flow on 4 faces (21.1% area) of pressure-outlet 14.
    35  1.4777e+00  2.9488e-04  4.1301e-05  0:00:37  965

 Reversed flow on 6 faces (31.6% area) of pressure-outlet 14.
    36  1.5221e+00  1.5417e-04  6.9221e-05  0:00:37  964

 Reversed flow on 4 faces (21.1% area) of pressure-outlet 14.
    37  1.1936e+00  2.1900e-04  9.2994e-05  0:00:36  963

 Reversed flow on 2 faces (10.5% area) of pressure-outlet 14.
    38  1.2139e+00  2.0159e-04  5.9865e-05  0:00:37  962

 Reversed flow on 2 faces (10.5% area) of pressure-outlet 14.
    39  1.4189e+00  1.7404e-04  4.3493e-05  0:00:37  961
    40  1.4109e+00  1.4321e-04  2.8485e-05  0:00:37  960

 Reversed flow on 1 face (5.3% area) of pressure-outlet 14.
    41  1.3054e+00  2.0410e-04  3.2350e-05  0:00:37  959

 Reversed flow on 3 faces (15.8% area) of pressure-outlet 14.
    42  1.2241e+00  1.6206e-04  7.2560e-05  0:00:37  958

 Reversed flow on 2 faces (10.5% area) of pressure-outlet 14.
    43  1.2606e+00  8.7083e-05  5.1832e-05  0:00:36  957
    44  1.0256e+00  1.4673e-04  2.3804e-05  0:00:37  956

 Reversed flow on 2 faces (10.5% area) of pressure-outlet 14.

  iter  continuity  x-velocity  y-velocity     time/iter
    45  8.8833e-01  2.8072e-04  2.7079e-05  0:00:37  955

 Reversed flow on 6 faces (31.6% area) of pressure-outlet 14.
    46  1.4723e+00  3.1572e-04  7.4540e-05  0:00:36  954

 Reversed flow on 6 faces (31.6% area) of pressure-outlet 14.
    47  1.4043e+00  2.3930e-04  1.0447e-04  0:00:35  953

 Reversed flow on 4 faces (21.1% area) of pressure-outlet 14.
    48  1.1581e+00  1.9718e-04  7.6303e-05  0:00:35  952

 Reversed flow on 2 faces (10.5% area) of pressure-outlet 14.
    49  1.1077e+00  1.9861e-04  5.3276e-05  0:00:35  951
    50  1.6095e+00  1.9240e-04  3.2420e-05  0:00:36  950

 Reversed flow on 3 faces (15.8% area) of pressure-outlet 14.
    51  1.3579e+00  4.1868e-04  5.1585e-05  0:00:35  949

 Reversed flow on 5 faces (26.3% area) of pressure-outlet 14.
    52  1.5105e+00  2.8928e-04  1.2587e-04  0:00:35  948

 Reversed flow on 4 faces (21.1% area) of pressure-outlet 14.
    53  1.6766e+00  1.6055e-04  8.8385e-05  0:00:34  947

 Reversed flow on 2 faces (10.5% area) of pressure-outlet 14.
    54  1.0458e+00  1.7798e-04  4.3855e-05  0:00:35  946
    55  1.0899e+00  2.1435e-04  2.4876e-05  0:00:35  945

 Reversed flow on 4 faces (21.1% area) of pressure-outlet 14.

  iter  continuity  x-velocity  y-velocity     time/iter
    56  1.6120e+00  4.5862e-04  3.7863e-05  0:00:36  944

 Reversed flow on 6 faces (31.6% area) of pressure-outlet 14.
    57  1.9160e+00  2.0385e-04  7.4805e-05  0:00:35  943

 Reversed flow on 4 faces (21.1% area) of pressure-outlet 14.
    58  1.2971e+00  2.4805e-04  1.0347e-04  0:00:35  942

 Reversed flow on 4 faces (21.1% area) of pressure-outlet 14.
    59  1.1061e+00  2.2006e-04  6.8876e-05  0:00:35  941

 Reversed flow on 2 faces (10.5% area) of pressure-outlet 14.
    60  1.4099e+00  1.6644e-04  4.9461e-05  0:00:36  940
    61  1.4521e+00  1.5760e-04  3.8064e-05  0:00:36  939

 Reversed flow on 2 faces (10.5% area) of pressure-outlet 14.
    62  1.3264e+00  2.8834e-04  4.7029e-05  0:00:36  938

 Reversed flow on 4 faces (21.1% area) of pressure-outlet 14.
    63  1.3830e+00  2.1696e-04  1.0134e-04  0:01:43  937

 Reversed flow on 3 faces (15.8% area) of pressure-outlet 14.
    64  1.4724e+00  1.1702e-04  6.8111e-05  0:01:29  936

 Reversed flow on 1 face (5.3% area) of pressure-outlet 14.
    65  9.2825e-01  1.5977e-04  3.4393e-05  0:01:19  935

 Reversed flow on 1 face (5.3% area) of pressure-outlet 14.
    66  1.0278e+00  2.0389e-04  2.9911e-05  0:01:11  934

 Reversed flow on 3 faces (15.8% area) of pressure-outlet 14.

  iter  continuity  x-velocity  y-velocity     time/iter
    67  1.4428e+00  3.4334e-04  4.0058e-05  0:01:05  933

 Reversed flow on 6 faces (31.6% area) of pressure-outlet 14.
    68  1.6992e+00  2.4972e-04  9.0505e-05  0:00:58  932

 Reversed flow on 5 faces (26.3% area) of pressure-outlet 14.
    69  1.2138e+00  2.2472e-04  9.5355e-05  0:00:53  931

 Reversed flow on 3 faces (15.8% area) of pressure-outlet 14.
    70  1.3072e+00  2.2497e-04  7.1447e-05  0:00:50  930

 Reversed flow on 2 faces (10.5% area) of pressure-outlet 14.
    71  1.3413e+00  2.4517e-04  7.1331e-05  0:00:48  929

 Reversed flow on 5 faces (26.3% area) of pressure-outlet 14.
    72  1.6201e+00  2.9478e-04  1.1225e-04  0:00:46  928

 Reversed flow on 4 faces (21.1% area) of pressure-outlet 14.
    73  1.5055e+00  2.8041e-04  1.4821e-04  0:00:43  927

 Reversed flow on 4 faces (21.1% area) of pressure-outlet 14.
    74  1.4432e+00  3.0862e-04  1.6053e-04  0:00:42  926

 Reversed flow on 5 faces (26.3% area) of pressure-outlet 14.
    75  1.3848e+00  2.6615e-04  1.4948e-04  0:00:39  925

 Reversed flow on 5 faces (26.3% area) of pressure-outlet 14.
    76  1.5504e+00  2.3832e-04  1.3319e-04  0:00:37  924

 Reversed flow on 4 faces (21.1% area) of pressure-outlet 14.
    77  1.3608e+00  1.6880e-04  8.8221e-05  0:00:37  923

 Reversed flow on 4 faces (21.1% area) of pressure-outlet 14.

  iter  continuity  x-velocity  y-velocity     time/iter
    78  1.1800e+00  2.0010e-04  8.8220e-05  0:00:37  922

 Reversed flow on 3 faces (15.8% area) of pressure-outlet 14.
    79  1.2474e+00  1.3904e-04  6.8215e-05  0:00:35  921

 Reversed flow on 2 faces (10.5% area) of pressure-outlet 14.
    80  1.2189e+00  1.3812e-04  5.4563e-05  0:00:36  920

 Reversed flow on 3 faces (15.8% area) of pressure-outlet 14.
    81  1.1723e+00  2.4276e-04  6.2750e-05  0:00:36  919

 Reversed flow on 3 faces (15.8% area) of pressure-outlet 14.
    82  1.2156e+00  2.3384e-04  8.0175e-05  0:00:35  918

 Reversed flow on 5 faces (26.3% area) of pressure-outlet 14.
    83  1.2271e+00  3.2160e-04  1.2044e-04  0:00:34  917

 Reversed flow on 5 faces (26.3% area) of pressure-outlet 14.
    84  1.5005e+00  3.4971e-04  1.6415e-04  0:00:33  916

 Reversed flow on 6 faces (31.6% area) of pressure-outlet 14.
    85  1.6173e+00  4.3992e-04  2.0633e-04  0:00:35  915

 Reversed flow on 5 faces (26.3% area) of pressure-outlet 14.
    86  1.7300e+00  3.3821e-04  1.9524e-04  0:00:36  914

 Reversed flow on 6 faces (31.6% area) of pressure-outlet 14.
    87  1.7161e+00  3.1344e-04  1.7947e-04  0:00:32  913

 Reversed flow on 5 faces (26.3% area) of pressure-outlet 14.
    88  1.5503e+00  2.7164e-04  1.6743e-04  0:00:34  912

 Reversed flow on 5 faces (26.3% area) of pressure-outlet 14.

  iter  continuity  x-velocity  y-velocity     time/iter
    89  1.5254e+00  2.7399e-04  1.5670e-04  0:00:36  911

 Reversed flow on 6 faces (31.6% area) of pressure-outlet 14.
    90  1.6230e+00  2.2929e-04  1.3266e-04  0:00:37  910

 Reversed flow on 5 faces (26.3% area) of pressure-outlet 14.
    91  1.4125e+00  2.1433e-04  1.1443e-04  0:00:36  909

 Reversed flow on 5 faces (26.3% area) of pressure-outlet 14.
    92  1.2743e+00  1.7712e-04  7.5238e-05  0:00:37  908

 Reversed flow on 4 faces (21.1% area) of pressure-outlet 14.
    93  1.1160e+00  1.4284e-04  5.8521e-05  0:00:37  907

 Reversed flow on 3 faces (15.8% area) of pressure-outlet 14.
    94  1.0536e+00  1.3439e-04  4.7708e-05  0:00:37  906

 Reversed flow on 2 faces (10.5% area) of pressure-outlet 14.
    95  1.0655e+00  1.3607e-04  4.3153e-05  0:00:35  905
    96  1.0428e+00  1.3289e-04  3.9890e-05  0:00:34  904

 Reversed flow on 2 faces (10.5% area) of pressure-outlet 14.
    97  1.0323e+00  2.2185e-04  4.5979e-05  0:00:36  903

 Reversed flow on 4 faces (21.1% area) of pressure-outlet 14.
    98  1.2128e+00  2.5758e-04  8.0157e-05  0:00:34  902

 Reversed flow on 3 faces (15.8% area) of pressure-outlet 14.
    99  1.1849e+00  2.0608e-04  9.6333e-05  0:00:36  901

 Reversed flow on 4 faces (21.1% area) of pressure-outlet 14.

  iter  continuity  x-velocity  y-velocity     time/iter
   100  1.1703e+00  2.8048e-04  1.3517e-04  0:00:36  900

 Reversed flow on 4 faces (21.1% area) of pressure-outlet 14.
   101  1.6050e+00  2.5871e-04  1.5006e-04  0:00:36  899

 Reversed flow on 6 faces (31.6% area) of pressure-outlet 14.
   102  1.5166e+00  2.6337e-04  1.5909e-04  0:00:34  898

 Reversed flow on 5 faces (26.3% area) of pressure-outlet 14.
   103  1.3922e+00  2.1443e-04  1.3189e-04  0:00:33  897

 Reversed flow on 6 faces (31.6% area) of pressure-outlet 14.
   104  1.0515e+00  2.5707e-04  1.1303e-04  0:00:35  896

 Reversed flow on 5 faces (26.3% area) of pressure-outlet 14.
   105  1.3139e+00  1.5084e-04  7.8551e-05  0:00:33  895

 Reversed flow on 5 faces (26.3% area) of pressure-outlet 14.
   106  1.0772e+00  1.4744e-04  6.6382e-05  0:00:33  894

 Reversed flow on 4 faces (21.1% area) of pressure-outlet 14.
   107  9.9255e-01  1.1590e-04  4.8892e-05  0:00:34  893

 Reversed flow on 3 faces (15.8% area) of pressure-outlet 14.
   108  8.1927e-01  1.1910e-04  4.0989e-05  0:00:35  892

 Reversed flow on 3 faces (15.8% area) of pressure-outlet 14.
   109  8.6432e-01  1.0590e-04  3.5060e-05  0:00:34  891

 Reversed flow on 1 face (5.3% area) of pressure-outlet 14.
   110  7.8843e-01  9.7966e-05  3.0252e-05  0:00:33  890

  iter  continuity  x-velocity  y-velocity     time/iter
   111  7.3762e-01  1.1345e-04  2.9110e-05  0:00:35  889
   112  7.6744e-01  1.1499e-04  2.3670e-05  0:00:35  888
   113  8.6843e-01  9.8775e-05  2.2868e-05  0:00:35  887
   114  8.6090e-01  9.0568e-05  2.2724e-05  0:00:36  886

 Reversed flow on 1 face (5.3% area) of pressure-outlet 14.
   115  7.0954e-01  1.4171e-04  3.3412e-05  0:00:37  885

 Reversed flow on 2 faces (10.5% area) of pressure-outlet 14.
   116  7.7094e-01  1.3519e-04  4.4125e-05  0:00:37  884

 Reversed flow on 2 faces (10.5% area) of pressure-outlet 14.
   117  7.6469e-01  1.2417e-04  4.8014e-05  0:00:36  883

 Reversed flow on 4 faces (21.1% area) of pressure-outlet 14.
   118  6.6842e-01  1.5775e-04  5.9579e-05  0:00:35  882

 Reversed flow on 3 faces (15.8% area) of pressure-outlet 14.
   119  7.4009e-01  9.2649e-05  3.9887e-05  0:00:36  881

 Reversed flow on 4 faces (21.1% area) of pressure-outlet 14.
   120  6.8084e-01  9.3101e-05  3.4186e-05  0:00:35  880

 Reversed flow on 2 faces (10.5% area) of pressure-outlet 14.
   121  6.5938e-01  6.1774e-05  2.6442e-05  0:00:36  879

 Reversed flow on 3 faces (15.8% area) of pressure-outlet 14.

  iter  continuity  x-velocity  y-velocity     time/iter
   122  5.2028e-01  8.8154e-05  2.2160e-05  0:00:34  878

 Reversed flow on 2 faces (10.5% area) of pressure-outlet 14.
   123  6.2917e-01  7.7977e-05  2.2701e-05  0:00:33  877

 Reversed flow on 1 face (5.3% area) of pressure-outlet 14.
   124  6.4930e-01  7.3699e-05  1.9356e-05  0:00:34  876

 Reversed flow on 2 faces (10.5% area) of pressure-outlet 14.
   125  6.5316e-01  1.2687e-04  2.2248e-05  0:00:35  875

 Reversed flow on 3 faces (15.8% area) of pressure-outlet 14.
   126  6.1926e-01  1.2014e-04  3.0958e-05  0:00:32  874

 Reversed flow on 2 faces (10.5% area) of pressure-outlet 14.
   127  6.1804e-01  7.8833e-05  2.3021e-05  0:00:34  873

 Reversed flow on 2 faces (10.5% area) of pressure-outlet 14.
   128  5.7883e-01  9.3695e-05  3.2793e-05  0:00:33  872

 Reversed flow on 1 face (5.3% area) of pressure-outlet 14.
   129  5.8606e-01  6.7143e-05  2.2609e-05  0:00:31  871

 Reversed flow on 1 face (5.3% area) of pressure-outlet 14.
   130  6.8982e-01  8.0480e-05  1.7235e-05  0:00:33  870
   131  6.3832e-01  9.6703e-05  1.5249e-05  0:00:34  869

 Reversed flow on 2 faces (10.5% area) of pressure-outlet 14.
   132  6.9120e-01  1.9842e-04  2.3117e-05  0:00:34  868

 Reversed flow on 4 faces (21.1% area) of pressure-outlet 14.

  iter  continuity  x-velocity  y-velocity     time/iter
   133  8.9364e-01  1.5554e-04  3.7495e-05  0:00:35  867

 Reversed flow on 3 faces (15.8% area) of pressure-outlet 14.
   134  8.5504e-01  1.2798e-04  4.1176e-05  0:00:34  866

 Reversed flow on 2 faces (10.5% area) of pressure-outlet 14.
   135  6.9630e-01  1.0934e-04  3.0521e-05  0:00:35  865

 Reversed flow on 1 face (5.3% area) of pressure-outlet 14.
   136  6.6693e-01  1.2713e-04  2.4850e-05  0:00:35  864
   137  8.8055e-01  1.4928e-04  2.4611e-05  0:00:35  863

 Reversed flow on 3 faces (15.8% area) of pressure-outlet 14.
   138  1.0570e+00  2.6620e-04  5.6720e-05  0:00:33  862

 Reversed flow on 6 faces (31.6% area) of pressure-outlet 14.
   139  1.0716e+00  2.7525e-04  1.0501e-04  0:00:32  861

 Reversed flow on 4 faces (21.1% area) of pressure-outlet 14.
   140  1.2355e+00  2.3307e-04  1.1255e-04  0:00:34  860

 Reversed flow on 4 faces (21.1% area) of pressure-outlet 14.
   141  1.1517e+00  2.8692e-04  1.2098e-04  0:00:34  859

 Reversed flow on 4 faces (21.1% area) of pressure-outlet 14.
   142  1.2971e+00  2.4099e-04  1.1686e-04  0:00:34  858

 Reversed flow on 3 faces (15.8% area) of pressure-outlet 14.
   143  1.3912e+00  1.5053e-04  8.2041e-05  0:00:32  857

 Reversed flow on 3 faces (15.8% area) of pressure-outlet 14.

  iter  continuity  x-velocity  y-velocity     time/iter
   144  1.1209e+00  1.4884e-04  5.2080e-05  0:00:31  856
   145  1.0994e+00  1.6855e-04  3.9801e-05  0:00:33  855

 Reversed flow on 3 faces (15.8% area) of pressure-outlet 14.
   146  1.1653e+00  3.3064e-04  5.3353e-05  0:00:33  854

 Reversed flow on 7 faces (36.8% area) of pressure-outlet 14.
   147  1.5343e+00  2.5385e-04  7.9686e-05  0:00:33  853

 Reversed flow on 6 faces (31.6% area) of pressure-outlet 14.
   148  1.3290e+00  2.6789e-04  1.1171e-04  0:00:32  852

 Reversed flow on 3 faces (15.8% area) of pressure-outlet 14.
   149  1.1814e+00  3.4095e-04  1.2387e-04  0:00:33  851

 Reversed flow on 4 faces (21.1% area) of pressure-outlet 14.
   150  1.4287e+00  3.4357e-04  1.3420e-04  0:00:32  850

 Reversed flow on 6 faces (31.6% area) of pressure-outlet 14.
   151  1.6345e+00  3.5602e-04  1.6005e-04  0:00:31  849

 Reversed flow on 5 faces (26.3% area) of pressure-outlet 14.
   152  1.6417e+00  2.4417e-04  1.5306e-04  0:00:32  848

 Reversed flow on 6 faces (31.6% area) of pressure-outlet 14.
   153  1.4286e+00  2.7579e-04  1.4785e-04  0:00:30  847

 Reversed flow on 3 faces (15.8% area) of pressure-outlet 14.
   154  1.2640e+00  2.8112e-04  1.3888e-04  0:00:32  846

 Reversed flow on 4 faces (21.1% area) of pressure-outlet 14.

  iter  continuity  x-velocity  y-velocity     time/iter
   155  1.5640e+00  3.3031e-04  1.5109e-04  0:00:33  845

 Reversed flow on 7 faces (36.8% area) of pressure-outlet 14.
   156  1.9660e+00  3.4808e-04  1.6699e-04  0:00:32  844

 Reversed flow on 6 faces (31.6% area) of pressure-outlet 14.
   157  1.6026e+00  1.6403e-04  1.0254e-04  0:00:31  843

 Reversed flow on 5 faces (26.3% area) of pressure-outlet 14.
   158  1.0301e+00  1.9005e-04  6.2361e-05  0:00:31  842

 Reversed flow on 2 faces (10.5% area) of pressure-outlet 14.
   159  9.9911e-01  1.9056e-04  4.2793e-05  0:00:29  841

 Reversed flow on 2 faces (10.5% area) of pressure-outlet 14.
   160  1.2183e+00  1.8539e-04  4.5552e-05  0:00:31  840

 Reversed flow on 4 faces (21.1% area) of pressure-outlet 14.
   161  1.4110e+00  3.0566e-04  7.9021e-05  0:00:32  839

 Reversed flow on 5 faces (26.3% area) of pressure-outlet 14.
   162  1.3167e+00  2.4554e-04  9.7802e-05  0:00:32  838

 Reversed flow on 5 faces (26.3% area) of pressure-outlet 14.
   163  1.2998e+00  3.6586e-04  1.4953e-04  0:00:32  837

 Reversed flow on 4 faces (21.1% area) of pressure-outlet 14.
   164  1.4806e+00  3.2537e-04  1.6273e-04  0:00:32  836

 Reversed flow on 6 faces (31.6% area) of pressure-outlet 14.
   165  1.6725e+00  3.4044e-04  1.8846e-04  0:00:30  835

 Reversed flow on 5 faces (26.3% area) of pressure-outlet 14.

  iter  continuity  x-velocity  y-velocity     time/iter
   166  1.6510e+00  2.6600e-04  1.7064e-04  0:00:31  834

 Reversed flow on 6 faces (31.6% area) of pressure-outlet 14.
   167  1.3778e+00  2.8565e-04  1.5784e-04  0:00:30  833

 Reversed flow on 4 faces (21.1% area) of pressure-outlet 14.
   168  1.5304e+00  2.6079e-04  1.4568e-04  0:00:31  832

 Reversed flow on 5 faces (26.3% area) of pressure-outlet 14.
   169  1.5275e+00  2.6907e-04  1.3736e-04  0:00:31  831

 Reversed flow on 6 faces (31.6% area) of pressure-outlet 14.
   170  1.5986e+00  1.8476e-04  1.1093e-04  0:00:30  830

 Reversed flow on 5 faces (26.3% area) of pressure-outlet 14.
   171  1.2433e+00  1.3808e-04  7.0154e-05  0:00:29  829

 Reversed flow on 4 faces (21.1% area) of pressure-outlet 14.
   172  8.9172e-01  1.6665e-04  4.9117e-05  0:00:31  828

 Reversed flow on 3 faces (15.8% area) of pressure-outlet 14.
   173  9.7270e-01  1.5998e-04  4.0877e-05  0:00:30  827

 Reversed flow on 2 faces (10.5% area) of pressure-outlet 14.
   174  1.0583e+00  1.2648e-04  3.8220e-05  0:00:29  826
   175  1.0868e+00  1.1120e-04  3.7584e-05  0:00:30  825

 Reversed flow on 2 faces (10.5% area) of pressure-outlet 14.
   176  9.9532e-01  1.8516e-04  4.3200e-05  0:00:30  824

 Reversed flow on 3 faces (15.8% area) of pressure-outlet 14.

  iter  continuity  x-velocity  y-velocity     time/iter
   177  1.0744e+00  1.7743e-04  5.5353e-05  0:00:31  823

 Reversed flow on 2 faces (10.5% area) of pressure-outlet 14.
   178  1.0272e+00  1.7100e-04  6.6985e-05  0:00:32  822

 Reversed flow on 2 faces (10.5% area) of pressure-outlet 14.
   179  1.0983e+00  1.4264e-04  5.4205e-05  0:00:51  821
   180  1.1091e+00  1.3775e-04  4.4761e-05  0:00:48  820

 Reversed flow on 2 faces (10.5% area) of pressure-outlet 14.
   181  9.8559e-01  3.3653e-04  6.8151e-05  0:00:46  819

 Reversed flow on 5 faces (26.3% area) of pressure-outlet 14.
   182  1.2586e+00  2.8580e-04  1.2222e-04  0:00:42  818

 Reversed flow on 5 faces (26.3% area) of pressure-outlet 14.
   183  1.2941e+00  1.3027e-04  7.1876e-05  0:00:39  817

 Reversed flow on 2 faces (10.5% area) of pressure-outlet 14.
   184  8.2672e-01  1.5375e-04  3.4321e-05  0:00:36  816
   185  8.6559e-01  2.0050e-04  2.2800e-05  0:00:37  815

 Reversed flow on 1 face (5.3% area) of pressure-outlet 14.
   186  1.2285e+00  2.1671e-04  2.5227e-05  0:00:37  814

 Reversed flow on 5 faces (26.3% area) of pressure-outlet 14.
   187  1.3336e+00  3.0807e-04  7.4943e-05  0:00:35  813

 Reversed flow on 5 faces (26.3% area) of pressure-outlet 14.

  iter  continuity  x-velocity  y-velocity     time/iter
   188  1.2161e+00  2.3754e-04  9.8296e-05  0:00:33  812

 Reversed flow on 2 faces (10.5% area) of pressure-outlet 14.
   189  1.0141e+00  1.9339e-04  7.0806e-05  0:00:34  811

 Reversed flow on 3 faces (15.8% area) of pressure-outlet 14.
   190  1.1848e+00  2.7857e-04  9.4597e-05  0:00:32  810

 Reversed flow on 2 faces (10.5% area) of pressure-outlet 14.
   191  1.4679e+00  1.6700e-04  8.3445e-05  0:00:31  809

 Reversed flow on 5 faces (26.3% area) of pressure-outlet 14.
   192  1.4617e+00  2.6624e-04  9.4903e-05  0:00:33  808

 Reversed flow on 3 faces (15.8% area) of pressure-outlet 14.
   193  1.2442e+00  1.9505e-04  6.9851e-05  0:00:31  807

 Reversed flow on 4 faces (21.1% area) of pressure-outlet 14.
   194  1.0898e+00  2.2482e-04  7.1893e-05  0:00:32  806

 Reversed flow on 7 faces (36.8% area) of pressure-outlet 14.
   195  1.3217e+00  2.4777e-04  7.8555e-05  0:00:31  805

 Reversed flow on 5 faces (26.3% area) of pressure-outlet 14.
   196  1.3463e+00  2.4267e-04  9.2733e-05  0:01:28  804

 Reversed flow on 4 faces (21.1% area) of pressure-outlet 14.
   197  1.2438e+00  3.1594e-04  1.0697e-04  0:01:16  803

 Reversed flow on 4 faces (21.1% area) of pressure-outlet 14.
   198  1.3256e+00  2.8672e-04  1.1510e-04  0:01:08  802

 Reversed flow on 5 faces (26.3% area) of pressure-outlet 14.

  iter  continuity  x-velocity  y-velocity     time/iter
   199  1.7051e+00  3.9107e-04  1.7593e-04  0:00:59  801

 Reversed flow on 6 faces (31.6% area) of pressure-outlet 14.
   200  1.7176e+00  2.8402e-04  1.6687e-04  0:00:53  800

 Reversed flow on 4 faces (21.1% area) of pressure-outlet 14.
   201  1.4717e+00  2.6996e-04  1.4701e-04  0:00:47  799

 Reversed flow on 4 faces (21.1% area) of pressure-outlet 14.
   202  1.3649e+00  3.2069e-04  1.5721e-04  0:00:45  798

 Reversed flow on 6 faces (31.6% area) of pressure-outlet 14.
   203  1.6469e+00  3.3733e-04  1.7861e-04  0:00:42  797

 Reversed flow on 5 faces (26.3% area) of pressure-outlet 14.
   204  1.7160e+00  2.2392e-04  1.4604e-04  0:00:39  796

 Reversed flow on 6 faces (31.6% area) of pressure-outlet 14.
   205  1.3566e+00  2.6095e-04  1.1924e-04  0:00:37  795

 Reversed flow on 5 faces (26.3% area) of pressure-outlet 14.
   206  1.3129e+00  1.6878e-04  8.2006e-05  0:00:35  794

 Reversed flow on 4 faces (21.1% area) of pressure-outlet 14.
   207  1.1391e+00  1.4126e-04  5.7012e-05  0:00:33  793

 Reversed flow on 3 faces (15.8% area) of pressure-outlet 14.
   208  1.0943e+00  1.4678e-04  4.6829e-05  0:00:31  792

 Reversed flow on 2 faces (10.5% area) of pressure-outlet 14.
   209  1.0316e+00  1.3961e-04  4.4811e-05  0:00:32  791

  iter  continuity  x-velocity  y-velocity     time/iter
   210  1.1156e+00  1.3071e-04  4.0612e-05  0:00:31  790

 Reversed flow on 1 face (5.3% area) of pressure-outlet 14.
   211  1.0617e+00  1.6811e-04  4.1840e-05  0:00:31  789

 Reversed flow on 4 faces (21.1% area) of pressure-outlet 14.
   212  1.1571e+00  2.7458e-04  7.5969e-05  0:00:31  788

 Reversed flow on 4 faces (21.1% area) of pressure-outlet 14.
   213  1.2156e+00  2.1022e-04  9.2647e-05  0:00:30  787

 Reversed flow on 3 faces (15.8% area) of pressure-outlet 14.
   214  1.2116e+00  1.9636e-04  9.8373e-05  0:00:31  786

 Reversed flow on 3 faces (15.8% area) of pressure-outlet 14.
   215  1.0929e+00  2.0929e-04  1.0898e-04  0:00:30  785

 Reversed flow on 5 faces (26.3% area) of pressure-outlet 14.
   216  1.1687e+00  2.6246e-04  1.3588e-04  0:00:29  784

 Reversed flow on 4 faces (21.1% area) of pressure-outlet 14.
   217  1.4032e+00  1.8169e-04  1.2147e-04  0:00:30  783

 Reversed flow on 5 faces (26.3% area) of pressure-outlet 14.
   218  1.1466e+00  2.0749e-04  1.0402e-04  0:00:29  782

 Reversed flow on 5 faces (26.3% area) of pressure-outlet 14.
   219  1.1339e+00  1.8850e-04  9.5773e-05  0:00:28  781

 Reversed flow on 4 faces (21.1% area) of pressure-outlet 14.
   220  1.0528e+00  1.1907e-04  6.2895e-05  0:00:27  780

 Reversed flow on 4 faces (21.1% area) of pressure-outlet 14.

  iter  continuity  x-velocity  y-velocity     time/iter
   221  8.9262e-01  1.1178e-04  4.3301e-05  0:00:29  779

 Reversed flow on 3 faces (15.8% area) of pressure-outlet 14.
   222  8.0208e-01  1.0598e-04  3.6318e-05  0:00:29  778

 Reversed flow on 2 faces (10.5% area) of pressure-outlet 14.
   223  7.5057e-01  1.0604e-04  3.0513e-05  0:00:28  777
   224  8.1033e-01  1.0677e-04  2.9284e-05  0:00:29  776

 Reversed flow on 1 face (5.3% area) of pressure-outlet 14.
   225  7.8444e-01  1.3101e-04  2.9679e-05  0:00:29  775

 Reversed flow on 1 face (5.3% area) of pressure-outlet 14.
   226  8.6859e-01  1.0136e-04  2.8835e-05  0:00:29  774

 Reversed flow on 1 face (5.3% area) of pressure-outlet 14.
   227  8.1049e-01  9.4119e-05  2.5759e-05  0:00:27  773
   228  6.9667e-01  1.1151e-04  2.2415e-05  0:00:29  772
   229  7.6715e-01  1.1572e-04  2.2847e-05  0:00:30  771

 Reversed flow on 2 faces (10.5% area) of pressure-outlet 14.
   230  8.0706e-01  2.0793e-04  3.2144e-05  0:00:29  770

 Reversed flow on 3 faces (15.8% area) of pressure-outlet 14.
   231  8.3366e-01  1.0741e-04  4.0921e-05  0:00:30  769

 Reversed flow on 3 faces (15.8% area) of pressure-outlet 14.

  iter  continuity  x-velocity  y-velocity     time/iter
   232  6.0140e-01  1.4283e-04  4.3717e-05  0:00:29  768

 Reversed flow on 2 faces (10.5% area) of pressure-outlet 14.
   233  6.1474e-01  1.1883e-04  3.0255e-05  0:00:31  767

 Reversed flow on 3 faces (15.8% area) of pressure-outlet 14.
   234  7.8790e-01  1.2288e-04  3.0802e-05  0:00:31  766

 Reversed flow on 3 faces (15.8% area) of pressure-outlet 14.
   235  7.6168e-01  6.8118e-05  2.7260e-05  0:00:29  765

 Reversed flow on 3 faces (15.8% area) of pressure-outlet 14.
   236  6.2531e-01  7.1115e-05  1.9497e-05  0:00:27  764
   237  4.8253e-01  9.1857e-05  1.4801e-05  0:00:29  763
   238  5.8442e-01  1.0535e-04  1.4149e-05  0:00:30  762

 Reversed flow on 2 faces (10.5% area) of pressure-outlet 14.
   239  8.1542e-01  1.0232e-04  2.2777e-05  0:00:29  761

 Reversed flow on 3 faces (15.8% area) of pressure-outlet 14.
   240  7.8055e-01  8.8888e-05  3.2162e-05  0:00:28  760

 Reversed flow on 2 faces (10.5% area) of pressure-outlet 14.
   241  5.5861e-01  8.6351e-05  2.2481e-05  0:00:29  759

 Reversed flow on 1 face (5.3% area) of pressure-outlet 14.
   242  4.4438e-01  9.8978e-05  1.8363e-05  0:00:29  758

  iter  continuity  x-velocity  y-velocity     time/iter
   243  6.1562e-01  9.4217e-05  1.6358e-05  0:00:29  757
   244  8.5940e-01  1.1832e-04  2.0276e-05  0:00:29  756

 Reversed flow on 2 faces (10.5% area) of pressure-outlet 14.
   245  8.8902e-01  1.7043e-04  3.2312e-05  0:00:28  755

 Reversed flow on 3 faces (15.8% area) of pressure-outlet 14.
   246  8.8633e-01  1.7467e-04  4.2545e-05  0:00:30  754

 Reversed flow on 5 faces (26.3% area) of pressure-outlet 14.
   247  7.9570e-01  2.4286e-04  7.0994e-05  0:00:28  753

 Reversed flow on 5 faces (26.3% area) of pressure-outlet 14.
   248  9.4907e-01  1.6152e-04  8.1835e-05  0:00:28  752

 Reversed flow on 3 faces (15.8% area) of pressure-outlet 14.
   249  9.3274e-01  1.9423e-04  8.4351e-05  0:00:27  751

 Reversed flow on 2 faces (10.5% area) of pressure-outlet 14.
   250  1.0402e+00  1.6851e-04  6.3336e-05  0:00:29  750

 Reversed flow on 2 faces (10.5% area) of pressure-outlet 14.
   251  1.1171e+00  1.5226e-04  4.6378e-05  0:00:28  749
   252  1.1758e+00  1.4334e-04  3.5853e-05  0:00:30  748

 Reversed flow on 3 faces (15.8% area) of pressure-outlet 14.
   253  1.1078e+00  2.5566e-04  5.2161e-05  0:00:28  747

 Reversed flow on 5 faces (26.3% area) of pressure-outlet 14.

  iter  continuity  x-velocity  y-velocity     time/iter
   254  1.2810e+00  2.1728e-04  7.2261e-05  0:00:28  746

 Reversed flow on 4 faces (21.1% area) of pressure-outlet 14.
   255  1.2453e+00  2.6660e-04  9.9627e-05  0:00:28  745

 Reversed flow on 4 faces (21.1% area) of pressure-outlet 14.
   256  1.4817e+00  2.3102e-04  8.1042e-05  0:00:27  744

 Reversed flow on 3 faces (15.8% area) of pressure-outlet 14.
   257  1.3296e+00  2.0880e-04  7.4438e-05  0:00:29  743

 Reversed flow on 3 faces (15.8% area) of pressure-outlet 14.
   258  1.4410e+00  2.8346e-04  8.5992e-05  0:00:28  742

 Reversed flow on 5 faces (26.3% area) of pressure-outlet 14.
   259  1.3460e+00  2.9852e-04  1.2014e-04  0:00:27  741

 Reversed flow on 4 faces (21.1% area) of pressure-outlet 14.
   260  1.4666e+00  2.5062e-04  1.2449e-04  0:00:28  740

 Reversed flow on 4 faces (21.1% area) of pressure-outlet 14.
   261  1.4236e+00  2.9550e-04  1.3614e-04  0:00:27  739

 Reversed flow on 3 faces (15.8% area) of pressure-outlet 14.
   262  1.5255e+00  1.9768e-04  9.7601e-05  0:00:26  738

 Reversed flow on 4 faces (21.1% area) of pressure-outlet 14.
   263  1.3667e+00  2.1173e-04  8.7453e-05  0:00:27  737

 Reversed flow on 2 faces (10.5% area) of pressure-outlet 14.
   264  1.3607e+00  1.4691e-04  6.5848e-05  0:00:27  736

 Reversed flow on 2 faces (10.5% area) of pressure-outlet 14.

  iter  continuity  x-velocity  y-velocity     time/iter
   265  1.2956e+00  1.5994e-04  5.8951e-05  0:00:26  735

 Reversed flow on 1 face (5.3% area) of pressure-outlet 14.
   266  1.2856e+00  1.9154e-04  4.7126e-05  0:00:28  734

 Reversed flow on 3 faces (15.8% area) of pressure-outlet 14.
   267  1.2503e+00  2.7921e-04  5.9951e-05  0:00:28  733

 Reversed flow on 6 faces (31.6% area) of pressure-outlet 14.
   268  1.4270e+00  3.4678e-04  1.0768e-04  0:00:26  732

 Reversed flow on 5 faces (26.3% area) of pressure-outlet 14.
   269  1.4304e+00  2.1888e-04  1.0729e-04  0:00:27  731

 Reversed flow on 3 faces (15.8% area) of pressure-outlet 14.
   270  1.2055e+00  2.5574e-04  1.0471e-04  0:00:27  730

 Reversed flow on 4 faces (21.1% area) of pressure-outlet 14.
   271  1.3574e+00  2.6163e-04  1.0635e-04  0:00:26  729

 Reversed flow on 5 faces (26.3% area) of pressure-outlet 14.
   272  1.4262e+00  3.3511e-04  1.3934e-04  0:00:26  728

 Reversed flow on 5 faces (26.3% area) of pressure-outlet 14.
   273  1.6259e+00  3.4456e-04  1.8363e-04  0:00:27  727

 Reversed flow on 6 faces (31.6% area) of pressure-outlet 14.
   274  1.5343e+00  3.2380e-04  1.8786e-04  0:00:27  726

 Reversed flow on 5 faces (26.3% area) of pressure-outlet 14.
   275  1.4465e+00  2.7209e-04  1.6767e-04  0:00:26  725

 Reversed flow on 5 faces (26.3% area) of pressure-outlet 14.

  iter  continuity  x-velocity  y-velocity     time/iter
   276  1.4616e+00  2.8388e-04  1.5446e-04  0:00:25  724

 Reversed flow on 6 faces (31.6% area) of pressure-outlet 14.
   277  1.5665e+00  2.4626e-04  1.3330e-04  0:00:25  723

 Reversed flow on 5 faces (26.3% area) of pressure-outlet 14.
   278  1.3418e+00  2.1116e-04  1.1232e-04  0:00:26  722

 Reversed flow on 5 faces (26.3% area) of pressure-outlet 14.
   279  1.2271e+00  1.6887e-04  7.4079e-05  0:00:26  721

 Reversed flow on 4 faces (21.1% area) of pressure-outlet 14.
   280  1.1320e+00  1.4118e-04  5.7251e-05  0:00:25  720

 Reversed flow on 3 faces (15.8% area) of pressure-outlet 14.
   281  1.0372e+00  1.3062e-04  4.6058e-05  0:00:27  719

 Reversed flow on 2 faces (10.5% area) of pressure-outlet 14.
   282  1.0349e+00  1.3628e-04  4.1545e-05  0:00:26  718
   283  1.0125e+00  1.3516e-04  4.0231e-05  0:00:25  717

 Reversed flow on 2 faces (10.5% area) of pressure-outlet 14.
   284  1.0274e+00  2.1631e-04  4.7143e-05  0:00:27  716

 Reversed flow on 4 faces (21.1% area) of pressure-outlet 14.
   285  1.2148e+00  2.6474e-04  8.2668e-05  0:00:27  715

 Reversed flow on 3 faces (15.8% area) of pressure-outlet 14.
   286  1.1533e+00  2.1553e-04  9.9552e-05  0:00:28  714

 Reversed flow on 4 faces (21.1% area) of pressure-outlet 14.

  iter  continuity  x-velocity  y-velocity     time/iter
   287  1.2062e+00  2.9527e-04  1.3945e-04  0:00:27  713

 Reversed flow on 5 faces (26.3% area) of pressure-outlet 14.
   288  1.3130e+00  2.4752e-04  1.4377e-04  0:00:26  712

 Reversed flow on 4 faces (21.1% area) of pressure-outlet 14.
   289  1.2772e+00  2.0313e-04  1.3017e-04  0:00:26  711

 Reversed flow on 5 faces (26.3% area) of pressure-outlet 14.
   290  1.1801e+00  2.1647e-04  1.1824e-04  0:00:27  710

 Reversed flow on 5 faces (26.3% area) of pressure-outlet 14.
   291  1.2804e+00  1.8615e-04  1.0830e-04  0:00:26  709

 Reversed flow on 5 faces (26.3% area) of pressure-outlet 14.
   292  1.1023e+00  1.8088e-04  9.5712e-05  0:00:27  708

 Reversed flow on 5 faces (26.3% area) of pressure-outlet 14.
   293  1.1153e+00  1.2657e-04  6.2005e-05  0:00:27  707

 Reversed flow on 4 faces (21.1% area) of pressure-outlet 14.
   294  8.8629e-01  1.0925e-04  4.5382e-05  0:00:26  706

 Reversed flow on 3 faces (15.8% area) of pressure-outlet 14.
   295  7.5736e-01  1.1566e-04  3.4166e-05  0:00:27  705

 Reversed flow on 2 faces (10.5% area) of pressure-outlet 14.
   296  8.6310e-01  1.1027e-04  3.1230e-05  0:00:26  704
   297  8.4599e-01  9.9710e-05  3.0237e-05  0:00:27  703

 Reversed flow on 1 face (5.3% area) of pressure-outlet 14.

  iter  continuity  x-velocity  y-velocity     time/iter
   298  1.0101e+00  1.3265e-04  3.5260e-05  0:00:25  702

 Reversed flow on 1 face (5.3% area) of pressure-outlet 14.
   299  9.6578e-01  1.0541e-04  3.3149e-05  0:00:26  701

 Reversed flow on 1 face (5.3% area) of pressure-outlet 14.
   300  8.0892e-01  1.2081e-04  2.8308e-05  0:00:28  700
   301  7.3515e-01  1.4082e-04  2.7596e-05  0:00:28  699
   302  9.3018e-01  1.2783e-04  2.7619e-05  0:00:28  698

 Reversed flow on 4 faces (21.1% area) of pressure-outlet 14.
   303  9.1061e-01  2.4720e-04  6.7580e-05  0:00:26  697

 Reversed flow on 5 faces (26.3% area) of pressure-outlet 14.
   304  8.9616e-01  1.5576e-04  6.5006e-05  0:00:27  696

 Reversed flow on 3 faces (15.8% area) of pressure-outlet 14.
   305  6.6924e-01  1.2228e-04  3.7288e-05  0:00:27  695

 Reversed flow on 1 face (5.3% area) of pressure-outlet 14.
   306  7.4859e-01  1.4055e-04  2.6939e-05  0:00:28  694

 Reversed flow on 3 faces (15.8% area) of pressure-outlet 14.
   307  1.0059e+00  1.7580e-04  3.0378e-05  0:00:27  693

 Reversed flow on 3 faces (15.8% area) of pressure-outlet 14.
   308  1.0544e+00  1.1537e-04  2.9416e-05  0:00:26  692

  iter  continuity  x-velocity  y-velocity     time/iter
   309  9.5059e-01  8.5462e-05  2.5302e-05  0:00:27  691
   310  5.6945e-01  1.3418e-04  2.0893e-05  0:00:26  690
   311  6.3025e-01  1.4487e-04  1.7656e-05  0:00:25  689

 Reversed flow on 1 face (5.3% area) of pressure-outlet 14.
   312  9.1026e-01  1.5882e-04  1.7932e-05  0:00:27  688

 Reversed flow on 3 faces (15.8% area) of pressure-outlet 14.
   313  1.0152e+00  1.7504e-04  3.3794e-05  0:00:26  687

 Reversed flow on 4 faces (21.1% area) of pressure-outlet 14.
   314  8.8809e-01  1.6538e-04  7.1176e-05  0:00:26  686

 Reversed flow on 2 faces (10.5% area) of pressure-outlet 14.
   315  7.8182e-01  1.1829e-04  4.5338e-05  0:00:24  685

 Reversed flow on 2 faces (10.5% area) of pressure-outlet 14.
   316  7.9905e-01  1.4310e-04  3.2475e-05  0:00:26  684
   317  9.9885e-01  1.4356e-04  2.3596e-05  0:00:26  683

 Reversed flow on 2 faces (10.5% area) of pressure-outlet 14.
   318  1.0719e+00  2.1939e-04  2.5237e-05  0:00:26  682

 Reversed flow on 5 faces (26.3% area) of pressure-outlet 14.
   319  1.2396e+00  2.2789e-04  5.9908e-05  0:00:25  681

 Reversed flow on 4 faces (21.1% area) of pressure-outlet 14.

  iter  continuity  x-velocity  y-velocity     time/iter
   320  1.0711e+00  1.6589e-04  7.2622e-05  0:00:24  680

 Reversed flow on 2 faces (10.5% area) of pressure-outlet 14.
   321  8.3718e-01  1.6654e-04  4.7698e-05  0:00:24  679

 Reversed flow on 1 face (5.3% area) of pressure-outlet 14.
   322  1.0017e+00  1.7130e-04  3.8806e-05  0:00:25  678
   323  1.1437e+00  1.7373e-04  3.3388e-05  0:00:24  677

 Reversed flow on 4 faces (21.1% area) of pressure-outlet 14.
   324  1.2916e+00  3.6459e-04  6.8453e-05  0:00:26  676

 Reversed flow on 6 faces (31.6% area) of pressure-outlet 14.
   325  1.2863e+00  2.3693e-04  1.1622e-04  0:00:25  675

 Reversed flow on 3 faces (15.8% area) of pressure-outlet 14.
   326  1.1391e+00  1.5168e-04  6.9685e-05  0:00:24  674

 Reversed flow on 2 faces (10.5% area) of pressure-outlet 14.
   327  8.7326e-01  1.8374e-04  4.1220e-05  0:01:15  673
   328  1.1188e+00  2.0058e-04  2.8866e-05  0:01:04  672

 Reversed flow on 4 faces (21.1% area) of pressure-outlet 14.
   329  1.3271e+00  4.1747e-04  4.9285e-05  0:00:57  671

[...]
(cx-gui-do cx-activate-item "Curves - Solution XY Plot*PanelButtons*PushButton1(OK)")
(cx-gui-do cx-set-list-selections "Curves - Solution XY Plot*Frame2(Line Style)*DropDownList2(Color)" '( 5))
(cx-gui-do cx-activate-item "Curves - Solution XY Plot*Frame2(Line Style)*DropDownList2(Color)")
(cx-gui-do cx-activate-item "Curves - Solution XY Plot*PanelButtons*PushButton1(OK)")
(cx-gui-do cx-set-list-selections "Curves - Solution XY Plot*Frame2(Line Style)*DropDownList2(Color)" '( 0))
(cx-gui-do cx-activate-item "Curves - Solution XY Plot*Frame2(Line Style)*DropDownList2(Color)")
(cx-gui-do cx-activate-item "Curves - Solution XY Plot*PanelButtons*PushButton1(OK)")
(cx-gui-do cx-set-list-selections "Curves - Solution XY Plot*Frame2(Line Style)*DropDownList2(Color)" '( 31))
(cx-gui-do cx-activate-item "Curves - Solution XY Plot*Frame2(Line Style)*DropDownList2(Color)")
(cx-gui-do cx-set-list-selections "Curves - Solution XY Plot*Frame2(Line Style)*DropDownList2(Color)" '( 28))
(cx-gui-do cx-activate-item "Curves - Solution XY Plot*Frame2(Line Style)*DropDownList2(Color)")
(cx-gui-do cx-activate-item "Curves - Solution XY Plot*PanelButtons*PushButton1(OK)")
(cx-gui-do cx-set-list-selections "Curves - Solution XY Plot*Frame2(Line Style)*DropDownList2(Color)" '( 28))
(cx-gui-do cx-activate-item "Curves - Solution XY Plot*Frame2(Line Style)*DropDownList2(Color)")
(cx-gui-do cx-set-list-selections "Curves - Solution XY Plot*Frame2(Line Style)*DropDownList2(Color)" '( 27))
(cx-gui-do cx-activate-item "Curves - Solution XY Plot*Frame2(Line Style)*DropDownList2(Color)")
(cx-gui-do cx-activate-item "Curves - Solution XY Plot*PanelButtons*PushButton1(OK)")
(cx-gui-do cx-activate-item "Curves - Solution XY Plot*PanelButtons*PushButton2(Cancel)")
(cx-gui-do cx-activate-item "Solution XY Plot*PanelButtons*PushButton2(Cancel)")
(cx-gui-do cx-activate-item "MenuBar*FileMenu*Save Picture...")
(cx-gui-do cx-activate-item "Save Picture*PanelButtons*PushButton1(OK)")
(cx-gui-do cx-set-file-dialog-entries "Select File" '( "midlinevelocitydevelopment.tif") "Hardcopy Files (*.tiff *.tif )")
(cx-gui-do cx-activate-item "Save Picture*PanelButtons*PushButton2(Cancel)")
(cx-gui-do cx-activate-item "MenuBar*ReadSubMenu*Case...")
(cx-gui-do cx-activate-item "Question*OK")
(cx-gui-do cx-activate-item "MenuBar*WriteSubMenu*Case...")
(cx-gui-do cx-set-file-dialog-entries "Select File" '( "initialgeometry.cas.h5") "CFF Case Files (*.cas.h5 )")
(cx-gui-do cx-activate-item "Question*OK")

Writing to 37PCL046:"C:/Users/y.chavali.176/OneDrive - Cranfield University/fm_assignment/initial_geometry/initialgeometry.cas.h5" in NODE0 mode and compression level 1 ...
Grouping cells for Laplace smoothing ...
         741 cells,     1 zone  ...
        1540 faces,     5 zones ...
         800 nodes,     1 zone  ...
  Done.
Done.
(cx-gui-do cx-activate-item "MenuBar*ReadSubMenu*Case...")
(cx-gui-do cx-activate-item "Question*OK")
(cx-gui-do cx-set-file-dialog-entries "Select File" '( "C:/Users/y.chavali.176/OneDrive - Cranfield University/fm_assignment/coarse10mpressureoutlet/COARSEOUTLET.cas.h5") "CFF Case Files (*.cas.h5 *.msh.h5 *.MSH.h5 )")
Note: Rank = 0: Process affinity not being set (6).

       Clearing partially read grid.

Reading from 37PCL046:"C:/Users/y.chavali.176/OneDrive - Cranfield University/fm_assignment/coarse10mpressureoutlet/COARSEOUTLET.cas.h5" in NODE0 mode ...
  Reading mesh ...
       18981 cells,     1 cell zone  ...
          18981 quadrilateral cells,  zone id: 9
       38980 faces,     5 face zones ...
          36944 2D interior faces,  zone id: 10
             19 2D velocity-inlet faces,  zone id: 11
            999 2D wall faces,  zone id: 12
            999 2D wall faces,  zone id: 13
             19 2D pressure-outlet faces,  zone id: 14
       20000 nodes,     1 node zone  ...
  Done.


Building...
     mesh
     materials,
     interface,
     domains,
	mixture
     zones,
	outlet
	bottomwall
	topwall
	inlet
	int_fluid
	fluid
     parallel,
Done.
(cx-gui-do cx-set-list-tree-selections "NavigationPane*Frame2*Table1*List_Tree2" (list "Setup|General"))
(cx-gui-do cx-set-list-tree-selections "NavigationPane*Frame2*Table1*List_Tree2" (list "Setup|General"))
(cx-gui-do cx-activate-item "NavigationPane*Frame2*Table1*List_Tree2")
(cx-gui-do cx-set-list-tree-selections "NavigationPane*Frame2*Table1*List_Tree2" (list "Setup|General"))
(cx-gui-do cx-activate-item "General*Table1*ButtonBox1(Mesh)*PushButton2(Display)")
(cx-gui-do cx-activate-item "Mesh Display*PanelButtons*PushButton1(OK)")
(cx-gui-do cx-activate-item "Mesh Display*PanelButtons*PushButton2(Cancel)")
(cx-gui-do cx-set-list-tree-selections "NavigationPane*Frame2*Table1*List_Tree2" (list "Results|Surfaces|midline"))
(cx-gui-do cx-set-list-tree-selections "NavigationPane*Frame2*Table1*List_Tree2" (list "Results|Surfaces|midline"))
(cx-gui-do cx-activate-item "NavigationPane*Frame2*Table1*List_Tree2")
(cx-gui-do cx-set-list-tree-selections "NavigationPane*Frame2*Table1*List_Tree2" (list "Results|Surfaces|midline"))
(cx-gui-do cx-activate-item "Line/Rake Surface*PanelButtons*PushButton2(Cancel)")
(cx-gui-do cx-set-list-tree-selections "NavigationPane*Frame2*Table1*List_Tree2" (list "Solution|Initialization"))
(cx-gui-do cx-set-list-tree-selections "NavigationPane*Frame2*Table1*List_Tree2" (list "Solution|Initialization"))
(cx-gui-do cx-activate-item "NavigationPane*Frame2*Table1*List_Tree2")
(cx-gui-do cx-set-list-tree-selections "NavigationPane*Frame2*Table1*List_Tree2" (list "Solution|Initialization"))
(cx-gui-do cx-activate-item "Solution Initialization*Table1*Frame9*PushButton1(Initialize)")
(cx-gui-do cx-set-list-tree-selections "NavigationPane*Frame2*Table1*List_Tree2" (list "Solution|Run Calculation"))
(cx-gui-do cx-set-list-tree-selections "NavigationPane*Frame2*Table1*List_Tree2" (list "Solution|Run Calculation"))
(cx-gui-do cx-activate-item "NavigationPane*Frame2*Table1*List_Tree2")
(cx-gui-do cx-set-list-tree-selections "NavigationPane*Frame2*Table1*List_Tree2" (list "Solution|Run Calculation"))
(cx-gui-do cx-activate-item "Run Calculation*Table1*Table6(Solution Advancement)*Table1*PushButton3(Calculate)")


  iter  continuity  x-velocity  y-velocity     time/iter
     1  0.0000e+00  3.8429e-02  0.0000e+00  0:00:48  999
     2  1.0000e+00  1.9288e-02  6.9445e-05  0:01:15  998
     3  1.0000e+00  1.0102e-02  5.5293e-05  0:01:10  997
     4  8.1069e-01  5.3081e-03  4.0240e-05  0:01:06  996
     5  5.6156e-01  2.7933e-03  2.8126e-05  0:01:02  995
     6  4.1094e-01  1.4701e-03  2.0001e-05  0:00:59  994
     7  3.0561e-01  7.7255e-04  1.3390e-05  0:00:57  993
     8  2.1470e-01  4.0504e-04  8.4526e-06  0:00:55  992
     9  1.4571e-01  2.1338e-04  4.9795e-06  0:00:53  991
    10  9.5477e-02  1.1280e-04  2.9166e-06  0:01:58  990
    11  6.0991e-02  5.9829e-05  1.7275e-06  0:01:44  989

  iter  continuity  x-velocity  y-velocity     time/iter
    12  3.8321e-02  3.1802e-05  1.0400e-06  0:01:32  988
    13  2.4061e-02  1.6943e-05  6.4069e-07  0:01:22  987
    14  1.5286e-02  9.0637e-06  3.9830e-07  0:01:14  986
    15  9.7692e-03  4.8530e-06  2.4443e-07  0:01:09  985
    16  6.2707e-03  2.6035e-06  1.5216e-07  0:01:03  984
    17  4.0456e-03  1.4004e-06  9.5253e-08  0:01:00  983
    18  2.6137e-03  7.5563e-07  5.9788e-08  0:00:57  982
    19  1.6951e-03  4.0922e-07  3.7658e-08  0:00:55  981
    20  1.0989e-03  2.2330e-07  2.4305e-08  0:00:53  980
    21  7.1467e-04  1.2275e-07  1.5626e-08  0:00:52  979
    22  4.6596e-04  6.7903e-08  1.0002e-08  0:00:51  978

  iter  continuity  x-velocity  y-velocity     time/iter
    23  3.0467e-04  3.7922e-08  6.3649e-09  0:00:50  977
    24  2.0011e-04  2.1427e-08  4.0308e-09  0:00:48  976
    25  1.3173e-04  1.2348e-08  2.6180e-09  0:00:46  975
    26  8.6874e-05  7.2206e-09  1.6901e-09  0:00:42  974
    27  5.7346e-05  4.2667e-09  1.0847e-09  0:00:43  973
    28  3.7889e-05  2.5502e-09  6.9449e-10  0:00:43  972
    29  2.5051e-05  1.5470e-09  4.4335e-10  0:00:41  971
    30  1.6572e-05  9.4482e-10  2.8270e-10  0:00:39  970
    31  1.0965e-05  5.7955e-10  1.8018e-10  0:00:41  969
    32  7.2554e-06  3.5706e-10  1.1478e-10  0:00:39  968
    33  4.8018e-06  2.2109e-10  7.3231e-11  0:00:39  967

  iter  continuity  x-velocity  y-velocity     time/iter
    34  3.1722e-06  1.4032e-10  4.8565e-11  0:00:38  966
    35  2.1049e-06  9.0254e-11  3.2047e-11  0:00:37  965
    36  1.3976e-06  5.7383e-11  2.0370e-11  0:00:37  964
    37  9.2961e-07  3.6380e-11  1.3045e-11  0:00:37  963
    38  6.1833e-07  2.3528e-11  8.6725e-12  0:00:37  962
    39  4.1146e-07  1.5216e-11  5.5535e-12  0:00:37  961
    40  2.7464e-07  9.7845e-12  3.5976e-12  0:00:36  960
    41  1.8344e-07  6.3805e-12  2.4147e-12  0:00:37  959
    42  1.2266e-07  4.1570e-12  1.5625e-12  0:00:37  958
    43  8.2153e-08  2.7296e-12  1.0508e-12  0:00:35  957
    44  5.4912e-08  1.7877e-12  6.8172e-13  0:00:36  956

  iter  continuity  x-velocity  y-velocity     time/iter
    45  3.6788e-08  1.1806e-12  4.5794e-13  0:00:36  955
    46  2.4663e-08  7.8735e-13  3.0719e-13  0:00:36  954
    47  1.6470e-08  5.1591e-13  1.9866e-13  0:00:37  953
    48  1.1044e-08  3.4202e-13  1.3353e-13  0:00:35  952
    49  7.4074e-09  2.2809e-13  8.9487e-14  0:00:37  951
    50  4.9664e-09  1.5228e-13  5.9942e-14  0:00:37  950
    51  3.3275e-09  1.0172e-13  4.0076e-14  0:00:34  949
    52  2.2289e-09  6.7977e-14  2.6772e-14  0:00:36  948
    53  1.4927e-09  4.5356e-14  1.7882e-14  0:00:34  947
    54  9.9950e-10  3.0202e-14  1.1950e-14  0:00:35  946
!   54 solution is converged

Calculation complete.
(cx-gui-do cx-activate-item "Information*OK")
(cx-gui-do cx-set-list-tree-selections "NavigationPane*Frame2*Table1*List_Tree2" (list "Results|Graphics|Contours|contour-1"))
(cx-gui-do cx-set-list-tree-selections "NavigationPane*Frame2*Table1*List_Tree2" (list "Results|Graphics|Contours|contour-1"))
(cx-gui-do cx-activate-item "NavigationPane*Frame2*Table1*List_Tree2")
(cx-gui-do cx-set-list-tree-selections "NavigationPane*Frame2*Table1*List_Tree2" (list "Results|Graphics|Contours|contour-1"))
(cx-gui-do cx-activate-item "Contours*PanelButtons*PushButton1(OK)")
(cx-gui-do cx-activate-item "Contours*Table1*Frame1*PushButton5(Colormap Options)")
(cx-gui-do cx-set-integer-entry "Colormap*Table1*Frame5(Colormap)*IntegerEntry2(Colormap Size)" 20)
(cx-gui-do cx-activate-item "Colormap*Table1*Frame5(Colormap)*IntegerEntry2(Colormap Size)")
(cx-gui-do cx-activate-item "Colormap*Table1*Frame5(Colormap)*IntegerEntry2(Colormap Size)")
(cx-gui-do cx-set-list-selections "Colormap*Table1*DropDownList2(Titles)" '( 1))
(cx-gui-do cx-activate-item "Colormap*Table1*DropDownList2(Titles)")
(cx-gui-do cx-activate-item "Colormap*PanelButtons*PushButton1(OK)")
(cx-gui-do cx-activate-item "Colormap*PanelButtons*PushButton2(Cancel)")
(cx-use-window-id 51)
(cx-use-window-id 51)
(cx-use-window-id 51)
(cx-use-window-id 51)
(cx-use-window-id 51)
(cx-use-window-id 51)
(cx-use-window-id 51)
(dolly-camera 0 -0.619006 0)
(cx-gui-do cx-activate-item "Contours*PanelButtons*PushButton2(Cancel)")
(cx-gui-do cx-activate-item "ToolBar*View*autoscale")
(cx-use-window-id 51)
(cx-use-window-id 51)
(cx-use-window-id 51)
(dolly-camera -1.43051e-06 0.0361245 0)
(cx-use-window-id 51)
(dolly-camera 0.235004 0.0632181 0)
(cx-use-window-id 51)
(cx-use-window-id 51)
(cx-use-window-id 51)
(cx-use-window-id 51)
(cx-use-window-id 51)
(dolly-camera 0 0 0)
(cx-gui-do cx-set-list-tree-selections "NavigationPane*Frame2*Table1*List_Tree2" (list "Results|Graphics|Contours|contour-1"))
(cx-gui-do cx-list-tree-right-click "NavigationPane*Frame2*Table1*List_Tree2" )
(cx-gui-do cx-activate-item "MenuBar*PopupMenuTree-contour-1*Edit...")
(cx-gui-do cx-activate-item "Contours*Table1*Frame1*PushButton5(Colormap Options)")
(cx-gui-do cx-set-integer-entry "Colormap*Table1*Frame5(Colormap)*IntegerEntry2(Colormap Size)" 10)
(cx-gui-do cx-activate-item "Colormap*Table1*Frame5(Colormap)*IntegerEntry2(Colormap Size)")
(cx-gui-do cx-activate-item "Colormap*Table1*Frame5(Colormap)*IntegerEntry2(Colormap Size)")
(cx-gui-do cx-activate-item "Colormap*PanelButtons*PushButton1(OK)")
(cx-gui-do cx-set-toggle-button2 "Contours*Table1*Frame1*Frame4*ToggleBox1(Coloring)*Banded" #t)
(cx-gui-do cx-activate-item "Contours*Table1*Frame1*Frame4*ToggleBox1(Coloring)*Banded")
(cx-gui-do cx-set-integer-entry "Colormap*Table1*Frame5(Colormap)*IntegerEntry2(Colormap Size)" 20)
(cx-gui-do cx-activate-item "Colormap*Table1*Frame5(Colormap)*IntegerEntry2(Colormap Size)")
(cx-gui-do cx-activate-item "Colormap*Table1*Frame5(Colormap)*IntegerEntry2(Colormap Size)")
(cx-gui-do cx-activate-item "Colormap*PanelButtons*PushButton1(OK)")
(cx-gui-do cx-activate-item "Colormap*PanelButtons*PushButton2(Cancel)")
(cx-gui-do cx-activate-item "Contours*PanelButtons*PushButton1(OK)")
(cx-use-window-id 51)
(dolly-camera -0.913743 7.17118e-08 0)
(cx-use-window-id 51)
(dolly-camera -0.450212 0.0425884 0)
(cx-use-window-id 51)
(cx-use-window-id 51)
(dolly-camera -0.65001 0.00798536 0)
(cx-use-window-id 51)
(dolly-camera -0.149183 -0.0212942 0)
(cx-use-window-id 51)
(dolly-camera -0.0177629 -0.0737234 0)
(cx-use-window-id 51)
(cx-use-window-id 51)
(cx-gui-do cx-activate-item "Contours*PanelButtons*PushButton2(Cancel)")
(cx-gui-do cx-activate-item "MenuBar*FileMenu*Save Picture...")
(cx-gui-do cx-set-list-selections "Save Picture*Table1*Frame3*Frame1*Frame3(Resolution)*Table1*DropDownList3(Select Resolution)" '( 4))
(cx-gui-do cx-activate-item "Save Picture*Table1*Frame3*Frame1*Frame3(Resolution)*Table1*DropDownList3(Select Resolution)")
(cx-gui-do cx-activate-item "Save Picture*PanelButtons*PushButton4(Preview)")
(cx-gui-do cx-activate-item "Save Picture*PanelButtons*PushButton4(Preview)")
(cx-gui-do cx-activate-item "Save Picture*PanelButtons*PushButton4(Preview)")
(cx-gui-do cx-set-toggle-button2 "Save Picture*Table1*Frame3*Frame2*ToggleBox1(Options)*CheckButton1(Landscape Orientation)" #f)
(cx-gui-do cx-activate-item "Save Picture*Table1*Frame3*Frame2*ToggleBox1(Options)*CheckButton1(Landscape Orientation)")
(cx-gui-do cx-activate-item "Save Picture*PanelButtons*PushButton4(Preview)")
(cx-gui-do cx-activate-item "Save Picture*PanelButtons*PushButton5(Apply)")
(cx-gui-do cx-activate-item "Save Picture*PanelButtons*PushButton1(OK)")
(cx-gui-do cx-set-file-dialog-entries "Select File" '( "C:/Users/y.chavali.176/OneDrive - Cranfield University/fm_assignment/coarse10mpressureoutlet/flowcontourinlett.tif") "Hardcopy Files (*.tiff *.tif )")
(cx-gui-do cx-set-toggle-button2 "Save Picture*Table1*Frame3*Frame2*ToggleBox1(Options)*CheckButton1(Landscape Orientation)" #t)
(cx-gui-do cx-activate-item "Save Picture*Table1*Frame3*Frame2*ToggleBox1(Options)*CheckButton1(Landscape Orientation)")
(cx-gui-do cx-activate-item "Save Picture*PanelButtons*PushButton5(Apply)")
(cx-gui-do cx-activate-item "Save Picture*PanelButtons*PushButton1(OK)")
(cx-gui-do cx-set-file-dialog-entries "Select File" '( "flowcontourinlett.tif") "Hardcopy Files (*.tiff *.tif )")
(cx-gui-do cx-activate-item "Question*OK")
(cx-use-window-id 51)
(dolly-camera 1.88265 0.0694365 0)
(cx-use-window-id 51)
(dolly-camera 1.63202 0.174348 0)
(cx-use-window-id 51)
(cx-use-window-id 51)
(cx-gui-do cx-activate-item "Save Picture*PanelButtons*PushButton2(Cancel)")
(cx-use-window-id 51)
(dolly-camera 0.2874 -3.35276e-08 0)
(cx-use-window-id 51)
(dolly-camera 0.109407 -1.49012e-08 0)
(cx-gui-do cx-activate-item "ToolBar*View*autoscale")
(cx-use-window-id 51)
(cx-gui-do cx-activate-item "MenuBar*FileMenu*Save Picture...")
(cx-gui-do cx-set-toggle-button2 "Save Picture*Table1*Frame3*Frame1*Frame3(Resolution)*Table1*ToggleBox1*CheckButton1(Use Window Resolution)" #t)
(cx-gui-do cx-activate-item "Save Picture*Table1*Frame3*Frame1*Frame3(Resolution)*Table1*ToggleBox1*CheckButton1(Use Window Resolution)")
(cx-gui-do cx-set-toggle-button2 "Save Picture*Table1*Frame3*Frame1*Frame3(Resolution)*Table1*ToggleBox1*CheckButton1(Use Window Resolution)" #f)
(cx-gui-do cx-activate-item "Save Picture*Table1*Frame3*Frame1*Frame3(Resolution)*Table1*ToggleBox1*CheckButton1(Use Window Resolution)")
(cx-gui-do cx-set-list-selections "Save Picture*Table1*Frame3*Frame1*Frame3(Resolution)*Table1*DropDownList3(Select Resolution)" '( 3))
(cx-gui-do cx-activate-item "Save Picture*Table1*Frame3*Frame1*Frame3(Resolution)*Table1*DropDownList3(Select Resolution)")
(cx-gui-do cx-set-toggle-button2 "Save Picture*Table1*Frame3*Frame1*Frame3(Resolution)*Table1*ToggleBox1*CheckButton1(Use Window Resolution)" #t)
(cx-gui-do cx-activate-item "Save Picture*Table1*Frame3*Frame1*Frame3(Resolution)*Table1*ToggleBox1*CheckButton1(Use Window Resolution)")
(cx-gui-do cx-activate-item "Save Picture*PanelButtons*PushButton1(OK)")
(cx-gui-do cx-set-file-dialog-entries "Select File" '( "COARSEOUTLET.tif") "Hardcopy Files (*.tiff *.tif )")
(cx-gui-do cx-activate-item "Question*OK")
(cx-use-window-id 51)
(cx-gui-do cx-set-list-tree-selections "NavigationPane*Frame2*Table1*List_Tree2" (list "Results|Plots|XY Plot|xy-plot-1"))
(cx-gui-do cx-set-list-tree-selections "NavigationPane*Frame2*Table1*List_Tree2" (list "Results|Plots|XY Plot|xy-plot-1"))
(cx-gui-do cx-activate-item "NavigationPane*Frame2*Table1*List_Tree2")
(cx-gui-do cx-set-list-tree-selections "NavigationPane*Frame2*Table1*List_Tree2" (list "Results|Plots|XY Plot|xy-plot-1"))
(cx-gui-do cx-activate-item "Solution XY Plot*PanelButtons*PushButton1(OK)")
(cx-gui-do cx-activate-item "Solution XY Plot*PanelButtons*PushButton4(Curves)")
(cx-gui-do cx-set-list-selections "Curves - Solution XY Plot*Frame2(Line Style)*DropDownList2(Color)" '( 25))
(cx-gui-do cx-activate-item "Curves - Solution XY Plot*Frame2(Line Style)*DropDownList2(Color)")
(cx-gui-do cx-activate-item "Curves - Solution XY Plot*PanelButtons*PushButton1(OK)")
(cx-gui-do cx-activate-item "Curves - Solution XY Plot*PanelButtons*PushButton2(Cancel)")
(cx-gui-do cx-activate-item "MenuBar*FileMenu*Save Picture...")
(cx-gui-do cx-activate-item "Save Picture*PanelButtons*PushButton4(Preview)")
(cx-gui-do cx-activate-item "Save Picture*PanelButtons*PushButton1(OK)")
(cx-gui-do cx-set-file-dialog-entries "Select File" '( "fulldevelopment.tif") "Hardcopy Files (*.tiff *.tif )")
(cx-gui-do cx-activate-item "Question*OK")
(cx-gui-do cx-activate-item "Save Picture*PanelButtons*PushButton2(Cancel)")
(cx-gui-do cx-activate-item "Solution XY Plot*PanelButtons*PushButton2(Cancel)")
(cx-gui-do cx-activate-item "ToolBar*View*autoscale")
(cx-gui-do cx-activate-item "ToolBar*Pointer*zoom")
(cx-gui-do cx-activate-item "MenuBar*FileMenu*Save Picture...")
(cx-gui-do cx-activate-item "Save Picture*PanelButtons*PushButton1(OK)")
(cx-gui-do cx-set-file-dialog-entries "Select File" '( "kinkatoutlet.tif") "Hardcopy Files (*.tiff *.tif )")
(cx-gui-do cx-activate-item "MenuBar*WriteSubMenu*Case...")
(cx-gui-do cx-set-file-dialog-entries "Select File" '( "COARSEOUTLET.cas.h5") "CFF Case Files (*.cas.h5 )")
(cx-gui-do cx-activate-item "Question*OK")

Writing to 37PCL046:"C:/Users/y.chavali.176/OneDrive - Cranfield University/fm_assignment/coarse10mpressureoutlet/COARSEOUTLET.cas.h5" in NODE0 mode and compression level 1 ...
Grouping cells for Laplace smoothing ...
       18981 cells,     1 zone  ...
       38980 faces,     5 zones ...
       20000 nodes,     1 zone  ...
  Done.
Done.
(cx-gui-do cx-activate-item "Save Picture*PanelButtons*PushButton2(Cancel)")
/exit y
(cx-gui-do cx-activate-item "Question*OK")

Posting ANSYS Product Improvement Program performance data 
Done.
Auto-Transcript Stop Time:  23:27:53, 02 Nov 2025 GMT Standard Time 
Total Transcript Time: 7 Hour 21 Minute 37 Second.
