Auto-Transcript Start Time:  16:20:33, 03 Nov 2025 GMT Standard Time 
Current Directory: "C:\Users\y.chavali.176\OneDrive - Cranfield University\fm_assignment\ICEM"

              Welcome to ANSYS Fluent 2025 R2

              Copyright 1987-2025 ANSYS, Inc. All Rights Reserved.
              Unauthorized use, distribution or duplication is prohibited.
              This product is subject to U.S. laws governing export and re-export.
              For full Legal Notice, see documentation.

Build Time: Jun 16 2025 10:46:43 EDT  Build Id: 10204  
 
Connected License Server List:	1055@cclic-2.central.cranfield.ac.uk

*********************************************
Info: Your license enables 4-way parallel execution.
For faster simulations, please start the application with the appropriate parallel options.
*********************************************


     --------------------------------------------------------------
     This is an academic version of ANSYS FLUENT. Usage of this product
     license is limited to the terms and conditions specified in your ANSYS
     license form, additional terms section.
     --------------------------------------------------------------
Host spawning Node 0 on machine "37PCL046" (win64).

-------------------------------------------------------------------------------
ID    Hostname  Core  O.S.         PID    Vendor                          
-------------------------------------------------------------------------------
n0    37PCL046  1/28  Windows-x64  32012  Intel(R) Core(TM) i7-14700      
host  37PCL046        Windows-x64  43216  Intel(R) Core(TM) i7-14700      

MPI Option Selected: intel
-------------------------------------------------------------------------------

Cleanup script file is C:\\Users\\y.chavali.176\\OneDrive - Cranfield University\\fm_assignment\\ICEM\\cleanup-fluent-37PCL046-43216.bat

Graphics driver currently in use: dx11


Posting ANSYS Product Improvement Program startup data
Done.
Note: Rank = 0: Process affinity not being set (6).
Reading "C:/Users/y.chavali.176/OneDrive - Cranfield University/fm_assignment/ICEM/coarse2m.msh"...
Buffering for file scan...

    1000 nodes.
     891 quadrilateral cells, zone  8.
    1674 2D interior faces, zone  9.
       9 2D velocity-inlet faces, zone 10.
       9 2D pressure-outlet faces, zone 11.
      99 2D wall faces, zone 12.
      99 2D wall faces, zone 13.

Building...
     mesh
     materials,
     interface,
     domains,
     zones,
	bottomwall
	topwall
	outlet
	inlet
	int_fluid
	fluid
     parallel,
Done.

> (cx-gui-do cx-activate-item "Key Behavioral Changes*PanelButtons*PushButton1(OK)")
(cx-gui-do cx-activate-item "General*Table1*ButtonBox1(Mesh)*PushButton2(Display)")
(cx-gui-do cx-activate-item "Mesh Display*PanelButtons*PushButton1(OK)")
(cx-gui-do cx-activate-item "Mesh Display*PanelButtons*PushButton2(Cancel)")
(cx-gui-do cx-activate-item "Ribbon*Frame1*Frame2(Domain)*Table1*Table3(Mesh)*PushButton6(Scale)")
(cx-gui-do cx-activate-item "Scale Mesh*PanelButtons*PushButton1(Close)")
(cx-gui-do cx-set-list-tree-selections "NavigationPane*Frame2*Table1*List_Tree2" (list "Setup|Boundary Conditions|Inlet|inlet (velocity-inlet, id=10)"))
(cx-gui-do cx-set-list-tree-selections "NavigationPane*Frame2*Table1*List_Tree2" (list "Setup|Boundary Conditions|Inlet|inlet (velocity-inlet, id=10)"))
(cx-gui-do cx-activate-item "NavigationPane*Frame2*Table1*List_Tree2")
(cx-gui-do cx-set-list-tree-selections "NavigationPane*Frame2*Table1*List_Tree2" (list "Setup|Boundary Conditions|Inlet|inlet (velocity-inlet, id=10)"))
(cx-gui-do cx-activate-tab-index "Velocity Inlet*Frame2*Frame2" 0)
(cx-gui-do cx-activate-tab-index "Velocity Inlet*Frame2*Frame2" 1)
(cx-gui-do cx-activate-tab-index "Velocity Inlet*Frame2*Frame2" 0)
(cx-gui-do cx-activate-tab-index "Velocity Inlet*Frame2*Frame2" 2)
(cx-gui-do cx-activate-tab-index "Velocity Inlet*Frame2*Frame2" 0)
(cx-gui-do cx-activate-tab-index "Velocity Inlet*Frame2*Frame2" 3)
(cx-gui-do cx-activate-tab-index "Velocity Inlet*Frame2*Frame2" 0)
(cx-gui-do cx-activate-tab-index "Velocity Inlet*Frame2*Frame2" 4)
(cx-gui-do cx-activate-tab-index "Velocity Inlet*Frame2*Frame2" 0)
(cx-gui-do cx-activate-tab-index "Velocity Inlet*Frame2*Frame2" 5)
(cx-gui-do cx-activate-tab-index "Velocity Inlet*Frame2*Frame2" 0)
(cx-gui-do cx-activate-tab-index "Velocity Inlet*Frame2*Frame2" 6)
(cx-gui-do cx-activate-tab-index "Velocity Inlet*Frame2*Frame2" 0)
(cx-gui-do cx-activate-tab-index "Velocity Inlet*Frame2*Frame2" 7)
(cx-gui-do cx-activate-tab-index "Velocity Inlet*Frame2*Frame2" 0)
(cx-gui-do cx-activate-tab-index "Velocity Inlet*Frame2*Frame2" 8)
(cx-gui-do cx-activate-tab-index "Velocity Inlet*Frame2*Frame2" 0)
(cx-gui-do cx-activate-item "Velocity Inlet*PanelButtons*PushButton2(Cancel)")
(cx-gui-do cx-set-list-tree-selections "NavigationPane*Frame2*Table1*List_Tree2" (list "Setup|Boundary Conditions|Wall|topwall (wall, id=12)"))
(cx-gui-do cx-set-list-tree-selections "NavigationPane*Frame2*Table1*List_Tree2" (list "Setup|Boundary Conditions|Wall|topwall (wall, id=12)"))
(cx-gui-do cx-activate-item "NavigationPane*Frame2*Table1*List_Tree2")
(cx-gui-do cx-set-list-tree-selections "NavigationPane*Frame2*Table1*List_Tree2" (list "Setup|Boundary Conditions|Wall|topwall (wall, id=12)"))
(cx-gui-do cx-activate-tab-index "Wall*Frame4" 0)
(cx-gui-do cx-activate-tab-index "Wall*Frame4" 1)
(cx-gui-do cx-activate-tab-index "Wall*Frame4" 0)
(cx-gui-do cx-activate-tab-index "Wall*Frame4" 2)
(cx-gui-do cx-activate-tab-index "Wall*Frame4" 0)
(cx-gui-do cx-activate-tab-index "Wall*Frame4" 3)
(cx-gui-do cx-activate-tab-index "Wall*Frame4" 0)
(cx-gui-do cx-activate-tab-index "Wall*Frame4" 4)
(cx-gui-do cx-activate-tab-index "Wall*Frame4" 0)
(cx-gui-do cx-activate-tab-index "Wall*Frame4" 5)
(cx-gui-do cx-activate-tab-index "Wall*Frame4" 0)
(cx-gui-do cx-activate-tab-index "Wall*Frame4" 6)
(cx-gui-do cx-activate-tab-index "Wall*Frame4" 0)
(cx-gui-do cx-activate-tab-index "Wall*Frame4" 7)
(cx-gui-do cx-activate-tab-index "Wall*Frame4" 0)
(cx-gui-do cx-activate-tab-index "Wall*Frame4" 8)
(cx-gui-do cx-activate-tab-index "Wall*Frame4" 0)
(cx-gui-do cx-activate-tab-index "Wall*Frame4" 9)
(cx-gui-do cx-activate-tab-index "Wall*Frame4" 0)
(cx-gui-do cx-activate-tab-index "Wall*Frame4" 10)
(cx-gui-do cx-activate-tab-index "Wall*Frame4" 0)
(cx-gui-do cx-activate-tab-index "Wall*Frame4*Frame8(Wall Film)*Frame1*Frame2" 0)
(cx-gui-do cx-activate-tab-index "Wall*Frame4*Frame8(Wall Film)*Frame1*Frame2" 1)
(cx-gui-do cx-activate-tab-index "Wall*Frame4*Frame8(Wall Film)*Frame1*Frame2" 0)
(cx-gui-do cx-activate-tab-index "Wall*Frame4*Frame8(Wall Film)*Frame1*Frame2" 2)
(cx-gui-do cx-activate-tab-index "Wall*Frame4*Frame8(Wall Film)*Frame1*Frame2" 0)
(cx-gui-do cx-activate-tab-index "Wall*Frame4*Frame8(Wall Film)*Frame1*Frame2" 3)
(cx-gui-do cx-activate-tab-index "Wall*Frame4*Frame8(Wall Film)*Frame1*Frame2" 0)
(cx-gui-do cx-activate-tab-index "Wall*Frame4*Frame8(Wall Film)*Frame1*Frame2" 4)
(cx-gui-do cx-activate-tab-index "Wall*Frame4*Frame8(Wall Film)*Frame1*Frame2" 0)
(cx-gui-do cx-activate-tab-index "Wall*Frame4*Frame8(Wall Film)*Frame1*Frame2" 5)
(cx-gui-do cx-activate-tab-index "Wall*Frame4*Frame8(Wall Film)*Frame1*Frame2" 0)
(cx-gui-do cx-activate-tab-index "Wall*Frame4*Frame8(Wall Film)*Frame1*Frame2" 6)
(cx-gui-do cx-activate-tab-index "Wall*Frame4*Frame8(Wall Film)*Frame1*Frame2" 0)
(cx-gui-do cx-activate-item "Wall*PanelButtons*PushButton2(Cancel)")
(cx-gui-do cx-set-list-tree-selections "NavigationPane*Frame2*Table1*List_Tree2" (list "Setup|Boundary Conditions|Wall|bottomwall (wall, id=13)"))
(cx-gui-do cx-set-list-tree-selections "NavigationPane*Frame2*Table1*List_Tree2" (list "Setup|Boundary Conditions|Wall|bottomwall (wall, id=13)"))
(cx-gui-do cx-activate-item "NavigationPane*Frame2*Table1*List_Tree2")
(cx-gui-do cx-set-list-tree-selections "NavigationPane*Frame2*Table1*List_Tree2" (list "Setup|Boundary Conditions|Wall|bottomwall (wall, id=13)"))
(cx-gui-do cx-set-list-tree-selections "NavigationPane*Frame2*Table1*List_Tree2" (list "Setup|Boundary Conditions|Wall|bottomwall (wall, id=13)"))
(cx-gui-do cx-activate-tab-index "Wall*Frame4" 0)
(cx-gui-do cx-activate-tab-index "Wall*Frame4" 1)
(cx-gui-do cx-activate-tab-index "Wall*Frame4" 0)
(cx-gui-do cx-activate-tab-index "Wall*Frame4" 2)
(cx-gui-do cx-activate-tab-index "Wall*Frame4" 0)
(cx-gui-do cx-activate-tab-index "Wall*Frame4" 3)
(cx-gui-do cx-activate-tab-index "Wall*Frame4" 0)
(cx-gui-do cx-activate-tab-index "Wall*Frame4" 4)
(cx-gui-do cx-activate-tab-index "Wall*Frame4" 0)
(cx-gui-do cx-activate-tab-index "Wall*Frame4" 5)
(cx-gui-do cx-activate-tab-index "Wall*Frame4" 0)
(cx-gui-do cx-activate-tab-index "Wall*Frame4" 6)
(cx-gui-do cx-activate-tab-index "Wall*Frame4" 0)
(cx-gui-do cx-activate-tab-index "Wall*Frame4" 7)
(cx-gui-do cx-activate-tab-index "Wall*Frame4" 0)
(cx-gui-do cx-activate-tab-index "Wall*Frame4" 8)
(cx-gui-do cx-activate-tab-index "Wall*Frame4" 0)
(cx-gui-do cx-activate-tab-index "Wall*Frame4" 9)
(cx-gui-do cx-activate-tab-index "Wall*Frame4" 0)
(cx-gui-do cx-activate-tab-index "Wall*Frame4" 10)
(cx-gui-do cx-activate-tab-index "Wall*Frame4" 0)
(cx-gui-do cx-activate-tab-index "Wall*Frame4*Frame8(Wall Film)*Frame1*Frame2" 0)
(cx-gui-do cx-activate-tab-index "Wall*Frame4*Frame8(Wall Film)*Frame1*Frame2" 1)
(cx-gui-do cx-activate-tab-index "Wall*Frame4*Frame8(Wall Film)*Frame1*Frame2" 0)
(cx-gui-do cx-activate-tab-index "Wall*Frame4*Frame8(Wall Film)*Frame1*Frame2" 2)
(cx-gui-do cx-activate-tab-index "Wall*Frame4*Frame8(Wall Film)*Frame1*Frame2" 0)
(cx-gui-do cx-activate-tab-index "Wall*Frame4*Frame8(Wall Film)*Frame1*Frame2" 3)
(cx-gui-do cx-activate-tab-index "Wall*Frame4*Frame8(Wall Film)*Frame1*Frame2" 0)
(cx-gui-do cx-activate-tab-index "Wall*Frame4*Frame8(Wall Film)*Frame1*Frame2" 4)
(cx-gui-do cx-activate-tab-index "Wall*Frame4*Frame8(Wall Film)*Frame1*Frame2" 0)
(cx-gui-do cx-activate-tab-index "Wall*Frame4*Frame8(Wall Film)*Frame1*Frame2" 5)
(cx-gui-do cx-activate-tab-index "Wall*Frame4*Frame8(Wall Film)*Frame1*Frame2" 0)
(cx-gui-do cx-activate-tab-index "Wall*Frame4*Frame8(Wall Film)*Frame1*Frame2" 6)
(cx-gui-do cx-activate-tab-index "Wall*Frame4*Frame8(Wall Film)*Frame1*Frame2" 0)
(cx-gui-do cx-activate-item "Wall*PanelButtons*PushButton2(Cancel)")
(cx-gui-do cx-set-list-tree-selections "NavigationPane*Frame2*Table1*List_Tree2" (list "Setup|Models|Viscous (SST k-omega)"))
(cx-gui-do cx-set-list-tree-selections "NavigationPane*Frame2*Table1*List_Tree2" (list "Setup|Models|Viscous (SST k-omega)"))
(cx-gui-do cx-activate-item "NavigationPane*Frame2*Table1*List_Tree2")
(cx-gui-do cx-set-list-tree-selections "NavigationPane*Frame2*Table1*List_Tree2" (list "Setup|Models|Viscous (SST k-omega)"))
(cx-gui-do cx-set-toggle-button2 "Viscous Model*Table1*ToggleBox1(Model)*Laminar" #t)
(cx-gui-do cx-activate-item "Viscous Model*Table1*ToggleBox1(Model)*Laminar")
(cx-gui-do cx-activate-item "Viscous Model*PanelButtons*PushButton1(OK)")
(cx-gui-do cx-set-list-tree-selections "NavigationPane*Frame2*Table1*List_Tree2" (list "Setup|Models|Viscous (Laminar)"))
(cx-gui-do cx-set-list-tree-selections "NavigationPane*Frame2*Table1*List_Tree2" (list "Setup|Cell Zone Conditions|Fluid|fluid (fluid, id=8)"))
(cx-gui-do cx-set-list-tree-selections "NavigationPane*Frame2*Table1*List_Tree2" (list "Setup|Cell Zone Conditions|Fluid|fluid (fluid, id=8)"))
(cx-gui-do cx-activate-item "NavigationPane*Frame2*Table1*List_Tree2")
(cx-gui-do cx-set-list-tree-selections "NavigationPane*Frame2*Table1*List_Tree2" (list "Setup|Cell Zone Conditions|Fluid|fluid (fluid, id=8)"))
(cx-gui-do cx-activate-tab-index "Fluid*Frame2*Table3*Frame1" 0)
(cx-gui-do cx-activate-tab-index "Fluid*Frame2*Table3*Frame1" 1)
(cx-gui-do cx-activate-tab-index "Fluid*Frame2*Table3*Frame1" 0)
(cx-gui-do cx-activate-tab-index "Fluid*Frame2*Table3*Frame1" 2)
(cx-gui-do cx-activate-tab-index "Fluid*Frame2*Table3*Frame1" 0)
(cx-gui-do cx-activate-tab-index "Fluid*Frame2*Table3*Frame1" 2)
(cx-gui-do cx-activate-tab-index "Fluid*Frame2*Table3*Frame1" 0)
(cx-gui-do cx-activate-tab-index "Fluid*Frame2*Table3*Frame1" 3)
(cx-gui-do cx-activate-tab-index "Fluid*Frame2*Table3*Frame1" 0)
(cx-gui-do cx-activate-tab-index "Fluid*Frame2*Table3*Frame1" 4)
(cx-gui-do cx-activate-tab-index "Fluid*Frame2*Table3*Frame1" 0)
(cx-gui-do cx-activate-tab-index "Fluid*Frame2*Table3*Frame1" 5)
(cx-gui-do cx-activate-tab-index "Fluid*Frame2*Table3*Frame1" 0)
(cx-gui-do cx-activate-tab-index "Fluid*Frame2*Table3*Frame1" 6)
(cx-gui-do cx-activate-tab-index "Fluid*Frame2*Table3*Frame1" 0)
(cx-gui-do cx-activate-tab-index "Fluid*Frame2*Table3*Frame1" 7)
(cx-gui-do cx-activate-tab-index "Fluid*Frame2*Table3*Frame1" 0)
(cx-gui-do cx-activate-tab-index "Fluid*Frame2*Table3*Frame1" 8)
(cx-gui-do cx-activate-tab-index "Fluid*Frame2*Table3*Frame1" 0)
(cx-gui-do cx-activate-tab-index "Fluid*Frame2*Table3*Frame1" 9)
(cx-gui-do cx-activate-tab-index "Fluid*Frame2*Table3*Frame1" 0)
(cx-gui-do cx-set-list-tree-selections "NavigationPane*Frame2*Table1*List_Tree2" (list "Setup|Materials|Fluid|air"))
(cx-gui-do cx-set-list-tree-selections "NavigationPane*Frame2*Table1*List_Tree2" (list "Setup|Materials|Fluid|air"))
(cx-gui-do cx-activate-item "NavigationPane*Frame2*Table1*List_Tree2")
(cx-gui-do cx-set-list-tree-selections "NavigationPane*Frame2*Table1*List_Tree2" (list "Setup|Materials|Fluid|air"))
(cx-gui-do cx-activate-item "Create/Edit Materials*Table1*Frame1*Frame2*ButtonBox2*PushButton1(Fluent Database)")
(cx-gui-do cx-set-list-selections "Fluent Database Materials*Table1*Frame1*List1(Materials)" '( 574))
(cx-gui-do cx-activate-item "Fluent Database Materials*Table1*Frame1*List1(Materials)")
(cx-gui-do cx-activate-item "Fluent Database Materials*PanelButtons*PushButton6(Copy)")
(cx-gui-do cx-enable-apply-button "Fluid")
(cx-gui-do cx-activate-item "Fluent Database Materials*PanelButtons*PushButton1(Close)")
(cx-gui-do cx-set-list-selections "Create/Edit Materials*Table1*Frame1*Table1*DropDownList4(Materials)" '( 1))
(cx-gui-do cx-activate-item "Create/Edit Materials*Table1*Frame1*Table1*DropDownList4(Materials)")
(cx-gui-do cx-set-real-entry-list "Create/Edit Materials*RealEntry10" '( 1000))
(cx-gui-do cx-set-real-entry-list "Create/Edit Materials*RealEntry16" '( 0.00102))
(cx-gui-do cx-activate-item "Create/Edit Materials*PanelButtons*PushButton3(Change/Create)")
(cx-gui-do cx-activate-item "Create/Edit Materials*PanelButtons*PushButton1(Close)")
(cx-gui-do cx-set-list-selections "Fluid*Frame2*Table1*Table1*DropDownList1(Material Name)" '( 0))
(cx-gui-do cx-activate-item "Fluid*Frame2*Table1*Table1*DropDownList1(Material Name)")
(cx-gui-do cx-activate-item "Fluid*PanelButtons*PushButton1(OK)")
(cx-gui-do cx-activate-item "Fluid*PanelButtons*PushButton2(Cancel)")
(cx-gui-do cx-set-list-tree-selections "NavigationPane*Frame2*Table1*List_Tree2" (list ))
(cx-gui-do cx-set-list-tree-selections "NavigationPane*Frame2*Table1*List_Tree2" (list "Setup|Materials|Fluid|air"))
(cx-gui-do cx-list-tree-right-click "NavigationPane*Frame2*Table1*List_Tree2" )
(cx-gui-do cx-activate-item "MenuBar*PopupMenuTree-air*Delete")
(cx-gui-do cx-activate-item "Question*OK")
(cx-gui-do cx-set-list-tree-selections "NavigationPane*Frame2*Table1*List_Tree2" (list "Setup|Boundary Conditions|Outlet|outlet (pressure-outlet, id=11)"))
(cx-gui-do cx-set-list-tree-selections "NavigationPane*Frame2*Table1*List_Tree2" (list "Setup|Boundary Conditions|Outlet|outlet (pressure-outlet, id=11)"))
(cx-gui-do cx-activate-item "NavigationPane*Frame2*Table1*List_Tree2")
(cx-gui-do cx-set-list-tree-selections "NavigationPane*Frame2*Table1*List_Tree2" (list "Setup|Boundary Conditions|Outlet|outlet (pressure-outlet, id=11)"))
(cx-gui-do cx-activate-tab-index "Pressure Outlet*Frame2*Frame2" 0)
(cx-gui-do cx-activate-tab-index "Pressure Outlet*Frame2*Frame2" 1)
(cx-gui-do cx-activate-tab-index "Pressure Outlet*Frame2*Frame2" 0)
(cx-gui-do cx-activate-tab-index "Pressure Outlet*Frame2*Frame2" 2)
(cx-gui-do cx-activate-tab-index "Pressure Outlet*Frame2*Frame2" 0)
(cx-gui-do cx-activate-tab-index "Pressure Outlet*Frame2*Frame2" 3)
(cx-gui-do cx-activate-tab-index "Pressure Outlet*Frame2*Frame2" 0)
(cx-gui-do cx-activate-tab-index "Pressure Outlet*Frame2*Frame2" 4)
(cx-gui-do cx-activate-tab-index "Pressure Outlet*Frame2*Frame2" 0)
(cx-gui-do cx-activate-tab-index "Pressure Outlet*Frame2*Frame2" 5)
(cx-gui-do cx-activate-tab-index "Pressure Outlet*Frame2*Frame2" 0)
(cx-gui-do cx-activate-tab-index "Pressure Outlet*Frame2*Frame2" 6)
(cx-gui-do cx-activate-tab-index "Pressure Outlet*Frame2*Frame2" 0)
(cx-gui-do cx-activate-tab-index "Pressure Outlet*Frame2*Frame2" 7)
(cx-gui-do cx-activate-tab-index "Pressure Outlet*Frame2*Frame2" 0)
(cx-gui-do cx-activate-tab-index "Pressure Outlet*Frame2*Frame2" 8)
(cx-gui-do cx-activate-tab-index "Pressure Outlet*Frame2*Frame2" 0)
(cx-gui-do cx-activate-item "Pressure Outlet*PanelButtons*PushButton2(Cancel)")
(cx-gui-do cx-set-list-tree-selections "NavigationPane*Frame2*Table1*List_Tree2" (list "Setup|Boundary Conditions|Internal|int_fluid (interior, id=9)"))
(cx-gui-do cx-set-list-tree-selections "NavigationPane*Frame2*Table1*List_Tree2" (list "Setup|Boundary Conditions|Outlet"))
(cx-gui-do cx-set-list-tree-selections "NavigationPane*Frame2*Table1*List_Tree2" (list "Setup|Boundary Conditions|Outlet"))
(cx-gui-do cx-activate-item "NavigationPane*Frame2*Table1*List_Tree2")
(cx-gui-do cx-set-list-tree-selections "NavigationPane*Frame2*Table1*List_Tree2" (list "Setup|Boundary Conditions|Outlet"))
(cx-gui-do cx-set-list-tree-selections "NavigationPane*Frame2*Table1*List_Tree2" (list "Setup|Boundary Conditions|Outlet"))
(cx-gui-do cx-activate-item "Pressure Outlet*PanelButtons*PushButton2(Cancel)")
(cx-gui-do cx-set-list-tree-selections "NavigationPane*Frame2*Table1*List_Tree2" (list "Setup|Boundary Conditions"))
(cx-gui-do cx-set-list-tree-selections "NavigationPane*Frame2*Table1*List_Tree2" (list "Setup|Boundary Conditions"))
(cx-gui-do cx-activate-item "NavigationPane*Frame2*Table1*List_Tree2")
(cx-gui-do cx-set-list-tree-selections "NavigationPane*Frame2*Table1*List_Tree2" (list "Setup|Boundary Conditions"))
(cx-gui-do cx-set-list-tree-selections "NavigationPane*Frame2*Table1*List_Tree2" (list "Setup|Boundary Conditions"))
(cx-gui-do cx-set-list-selections "Boundary Conditions*Table1*List2(Zone)" '( 3))
(cx-gui-do cx-activate-item "Boundary Conditions*Table1*List2(Zone)")
(cx-gui-do cx-set-list-selections "Boundary Conditions*Table1*Table3*DropDownList2(Type)" '( 12))
(cx-gui-do cx-activate-item "Boundary Conditions*Table1*Table3*DropDownList2(Type)")
(cx-gui-do cx-activate-item "Pressure Outlet*PanelButtons*PushButton1(OK)")
(cx-gui-do cx-activate-item "Pressure Outlet*PanelButtons*PushButton2(Cancel)")
(cx-gui-do cx-set-list-tree-selections "NavigationPane*Frame2*Table1*List_Tree2" (list "Setup|Cell Zone Conditions|Fluid|fluid (fluid, id=8)"))
(cx-gui-do cx-set-list-tree-selections "NavigationPane*Frame2*Table1*List_Tree2" (list "Setup|Cell Zone Conditions|Fluid|fluid (fluid, id=8)"))
(cx-gui-do cx-activate-item "NavigationPane*Frame2*Table1*List_Tree2")
(cx-gui-do cx-set-list-tree-selections "NavigationPane*Frame2*Table1*List_Tree2" (list "Setup|Cell Zone Conditions|Fluid|fluid (fluid, id=8)"))
(cx-gui-do cx-activate-item "Fluid*PanelButtons*PushButton2(Cancel)")
(cx-gui-do cx-set-list-tree-selections "NavigationPane*Frame2*Table1*List_Tree2" (list "Setup|Boundary Conditions|Inlet|inlet (velocity-inlet, id=10)"))
(cx-gui-do cx-set-list-tree-selections "NavigationPane*Frame2*Table1*List_Tree2" (list "Setup|Boundary Conditions|Inlet|inlet (velocity-inlet, id=10)"))
(cx-gui-do cx-activate-item "NavigationPane*Frame2*Table1*List_Tree2")
(cx-gui-do cx-set-list-tree-selections "NavigationPane*Frame2*Table1*List_Tree2" (list "Setup|Boundary Conditions|Inlet|inlet (velocity-inlet, id=10)"))
(cx-gui-do cx-enable-apply-button "Velocity Inlet")
(cx-gui-do cx-set-expression-entry "Velocity Inlet*Frame2*Frame2*Frame1(Momentum)*Table1*Table9*ExpressionEntry1(Velocity Magnitude)" '("0.00010455" . 0))
(cx-gui-do cx-activate-item "Velocity Inlet*PanelButtons*PushButton1(OK)")
(cx-gui-do cx-activate-item "Velocity Inlet*PanelButtons*PushButton2(Cancel)")
(cx-gui-do cx-set-list-tree-selections "NavigationPane*Frame2*Table1*List_Tree2" (list "Setup|Boundary Conditions|Internal|int_fluid (interior, id=9)"))
(cx-gui-do cx-set-list-tree-selections "NavigationPane*Frame2*Table1*List_Tree2" (list "Setup|Boundary Conditions|Internal|int_fluid (interior, id=9)"))
(cx-gui-do cx-activate-item "NavigationPane*Frame2*Table1*List_Tree2")
(cx-gui-do cx-set-list-tree-selections "NavigationPane*Frame2*Table1*List_Tree2" (list "Setup|Boundary Conditions|Internal|int_fluid (interior, id=9)"))
(cx-gui-do cx-activate-item "Interior*PanelButtons*PushButton2(Cancel)")
(cx-gui-do cx-set-list-tree-selections "NavigationPane*Frame2*Table1*List_Tree2" (list "Setup|Reference Values"))
(cx-gui-do cx-set-list-tree-selections "NavigationPane*Frame2*Table1*List_Tree2" (list "Setup|Reference Values"))
(cx-gui-do cx-activate-item "NavigationPane*Frame2*Table1*List_Tree2")
(cx-gui-do cx-set-list-tree-selections "NavigationPane*Frame2*Table1*List_Tree2" (list "Setup|Reference Values"))
(cx-gui-do cx-set-list-selections "Reference Values*DropDownList1(Compute from)" '( 1))
(cx-gui-do cx-activate-item "Reference Values*DropDownList1(Compute from)")
(cx-gui-do cx-set-list-selections "Reference Values*DropDownList4(Reference Zone)" '( 1))
(cx-gui-do cx-activate-item "Reference Values*DropDownList4(Reference Zone)")
(cx-gui-do cx-set-list-tree-selections "NavigationPane*Frame2*Table1*List_Tree2" (list "Solution|Methods"))
(cx-gui-do cx-set-list-tree-selections "NavigationPane*Frame2*Table1*List_Tree2" (list "Solution|Methods"))
(cx-gui-do cx-activate-item "NavigationPane*Frame2*Table1*List_Tree2")
(cx-gui-do cx-set-list-tree-selections "NavigationPane*Frame2*Table1*List_Tree2" (list "Solution|Methods"))
(cx-gui-do cx-set-list-tree-selections "NavigationPane*Frame2*Table1*List_Tree2" (list "Solution|Controls"))
(cx-gui-do cx-set-list-tree-selections "NavigationPane*Frame2*Table1*List_Tree2" (list "Solution|Controls"))
(cx-gui-do cx-activate-item "NavigationPane*Frame2*Table1*List_Tree2")
(cx-gui-do cx-set-list-tree-selections "NavigationPane*Frame2*Table1*List_Tree2" (list "Solution|Controls"))
(cx-gui-do cx-set-list-tree-selections "NavigationPane*Frame2*Table1*List_Tree2" (list "Solution|Monitors|Residual"))
(cx-gui-do cx-set-list-tree-selections "NavigationPane*Frame2*Table1*List_Tree2" (list "Solution|Monitors|Residual"))
(cx-gui-do cx-activate-item "NavigationPane*Frame2*Table1*List_Tree2")
(cx-gui-do cx-set-list-tree-selections "NavigationPane*Frame2*Table1*List_Tree2" (list "Solution|Monitors|Residual"))
(cx-gui-do cx-set-list-tree-selections "NavigationPane*Frame2*Table1*List_Tree2" (list "Solution|Monitors|Report Files"))
(cx-gui-do cx-set-list-tree-selections "NavigationPane*Frame2*Table1*List_Tree2" (list "Solution|Monitors|Report Files"))
(cx-gui-do cx-activate-item "NavigationPane*Frame2*Table1*List_Tree2")
(cx-gui-do cx-set-list-tree-selections "NavigationPane*Frame2*Table1*List_Tree2" (list "Solution|Monitors|Report Files"))
(cx-gui-do cx-activate-item "Report File Definitions*PanelButtons*PushButton1(Close)")
(cx-gui-do cx-set-list-tree-selections "NavigationPane*Frame2*Table1*List_Tree2" (list "Solution|Monitors|Report Plots"))
(cx-gui-do cx-set-list-tree-selections "NavigationPane*Frame2*Table1*List_Tree2" (list "Solution|Monitors|Report Plots"))
(cx-gui-do cx-activate-item "NavigationPane*Frame2*Table1*List_Tree2")
(cx-gui-do cx-set-list-tree-selections "NavigationPane*Frame2*Table1*List_Tree2" (list "Solution|Monitors|Report Plots"))
(cx-gui-do cx-activate-item "Report Plot Definitions*Table1*ButtonBox3*PushButton1(New)")
(cx-gui-do cx-activate-item "New Report Plot*PanelButtons*PushButton2(Cancel)")
(cx-gui-do cx-activate-item "Report Plot Definitions*PanelButtons*PushButton1(Close)")
(cx-gui-do cx-set-list-tree-selections "NavigationPane*Frame2*Table1*List_Tree2" (list "Solution|Monitors|Residual"))
(cx-gui-do cx-set-real-entry-list "Residual Monitors*Table1*Table2*Table1*Table1(Equations)*RealEntry11" '( 1e-06))
(cx-gui-do cx-set-real-entry-list "Residual Monitors*Table1*Table2*Table1*Table1(Equations)*RealEntry17" '( 1e-06))
(cx-gui-do cx-set-real-entry-list "Residual Monitors*Table1*Table2*Table1*Table1(Equations)*RealEntry23" '( 1e-06))
(cx-gui-do cx-activate-item "Residual Monitors*PanelButtons*PushButton1(OK)")
(cx-gui-do cx-set-list-tree-selections "NavigationPane*Frame2*Table1*List_Tree2" (list "Solution|Initialization"))
(cx-gui-do cx-set-list-tree-selections "NavigationPane*Frame2*Table1*List_Tree2" (list "Solution|Initialization"))
(cx-gui-do cx-activate-item "NavigationPane*Frame2*Table1*List_Tree2")
(cx-gui-do cx-set-list-tree-selections "NavigationPane*Frame2*Table1*List_Tree2" (list "Solution|Initialization"))
(cx-gui-do cx-set-toggle-button2 "Solution Initialization*Table1*ToggleBox3(Initialization Methods)*Standard Initialization" #t)
(cx-gui-do cx-activate-item "Solution Initialization*Table1*ToggleBox3(Initialization Methods)*Standard Initialization")
(cx-gui-do cx-set-list-selections "Solution Initialization*Table1*DropDownList1(Compute from)" '( 1))
(cx-gui-do cx-activate-item "Solution Initialization*Table1*DropDownList1(Compute from)")
(cx-gui-do cx-activate-item "Solution Initialization*Table1*Frame9*PushButton1(Initialize)")
(cx-gui-do cx-set-list-tree-selections "NavigationPane*Frame2*Table1*List_Tree2" (list "Solution|Run Calculation"))
(cx-gui-do cx-set-list-tree-selections "NavigationPane*Frame2*Table1*List_Tree2" (list "Solution|Run Calculation"))
(cx-gui-do cx-activate-item "NavigationPane*Frame2*Table1*List_Tree2")
(cx-gui-do cx-set-list-tree-selections "NavigationPane*Frame2*Table1*List_Tree2" (list "Solution|Run Calculation"))
(cx-gui-do cx-set-integer-entry "Run Calculation*Table1*Table3(Parameters)*Table1*Table1*IntegerEntry1(Number of Iterations)" 1000)
(cx-gui-do cx-activate-item "Run Calculation*Table1*Table3(Parameters)*Table1*Table1*IntegerEntry1(Number of Iterations)")
(cx-gui-do cx-activate-item "Run Calculation*Table1*Table6(Solution Advancement)*Table1*PushButton3(Calculate)")


  iter  continuity  x-velocity  y-velocity     time/iter
     1  0.0000e+00  5.9942e-02  0.0000e+00  0:00:11  999
     2  1.0000e+00  3.6184e-02  5.2792e-04  0:00:48  998
     3  1.0000e+00  2.1142e-02  4.9688e-04  0:00:41  997
     4  8.9092e-01  1.2313e-02  3.4561e-04  0:00:37  996
     5  7.1764e-01  7.2846e-03  2.3282e-04  0:00:33  995
     6  5.0398e-01  4.3163e-03  1.3544e-04  0:00:30  994
     7  3.6790e-01  2.5798e-03  8.6266e-05  0:00:27  993
     8  2.6956e-01  1.5433e-03  5.9371e-05  0:00:26  992
     9  1.9580e-01  9.1964e-04  4.0894e-05  0:00:24  991
    10  1.4140e-01  5.4870e-04  2.8901e-05  0:00:21  990
    11  9.9936e-02  3.2622e-04  1.9857e-05  0:00:20  989

  iter  continuity  x-velocity  y-velocity     time/iter
    12  6.9627e-02  1.9293e-04  1.3424e-05  0:00:21  988
    13  4.7369e-02  1.1343e-04  8.9145e-06  0:00:20  987
    14  3.2568e-02  6.6907e-05  6.0175e-06  0:00:17  986
    15  2.2005e-02  4.0803e-05  4.0400e-06  0:00:18  985
    16  1.4733e-02  2.5131e-05  2.6724e-06  0:00:16  984
    17  1.0003e-02  1.5463e-05  1.7495e-06  0:00:16  983
    18  6.7255e-03  9.5237e-06  1.1324e-06  0:00:18  982
    19  4.4529e-03  5.8598e-06  7.2429e-07  0:00:17  981
    20  2.9293e-03  3.5975e-06  4.6338e-07  0:00:17  980
    21  1.9204e-03  2.2163e-06  2.9785e-07  0:00:15  979
    22  1.2659e-03  1.3755e-06  2.0014e-07  0:00:17  978

  iter  continuity  x-velocity  y-velocity     time/iter
    23  8.3944e-04  8.2590e-07  1.3407e-07  0:00:17  977
    24  5.5701e-04  4.8886e-07  8.8963e-08  0:00:17  976
    25  3.7030e-04  2.9013e-07  5.8672e-08  0:00:17  975
    26  2.4596e-04  1.7413e-07  3.8341e-08  0:00:17  974
    27  1.6301e-04  1.0560e-07  2.5757e-08  0:00:16  973
    28  1.0723e-04  6.4515e-08  1.7123e-08  0:00:17  972
    29  7.0113e-05  4.1473e-08  1.1164e-08  0:00:16  971
    30  4.5739e-05  2.7596e-08  7.1664e-09  0:00:16  970
    31  3.0127e-05  1.8667e-08  4.5464e-09  0:00:16  969
    32  1.9928e-05  1.2472e-08  2.9032e-09  0:00:16  968
    33  1.3167e-05  7.8117e-09  1.9316e-09  0:00:15  967

  iter  continuity  x-velocity  y-velocity     time/iter
    34  8.7297e-06  4.8070e-09  1.2940e-09  0:00:16  966
    35  5.8189e-06  2.9210e-09  8.6132e-10  0:00:16  965
    36  3.8935e-06  1.8050e-09  5.6902e-10  0:00:15  964
    37  2.6314e-06  1.1285e-09  3.7930e-10  0:00:15  963
    38  1.7658e-06  7.1433e-10  2.5190e-10  0:00:15  962
    39  1.1757e-06  4.8960e-10  1.6597e-10  0:00:15  961
    40  7.7946e-07  3.5918e-10  1.0829e-10  0:00:15  960
!   40 solution is converged

Calculation complete.
(cx-gui-do cx-activate-item "Information*OK")
(cx-gui-do cx-set-list-tree-selections "NavigationPane*Frame2*Table1*List_Tree2" (list "Results|Graphics|Contours"))
(cx-gui-do cx-set-list-tree-selections "NavigationPane*Frame2*Table1*List_Tree2" (list "Results|Graphics|Contours"))
(cx-gui-do cx-activate-item "NavigationPane*Frame2*Table1*List_Tree2")
(cx-gui-do cx-set-list-tree-selections "NavigationPane*Frame2*Table1*List_Tree2" (list "Results|Graphics|Contours"))
(cx-gui-do cx-activate-item "Contours*PanelButtons*PushButton1(OK)")
Creating zone surface for fluid zone
(cx-gui-do cx-activate-item "Contours*PanelButtons*PushButton2(Cancel)")
(cx-gui-do cx-set-list-tree-selections "NavigationPane*Frame2*Table1*List_Tree2" (list "Results|Graphics|Contours"))
(cx-gui-do cx-set-list-tree-selections "NavigationPane*Frame2*Table1*List_Tree2" (list "Results|Graphics|Contours"))
(cx-gui-do cx-activate-item "NavigationPane*Frame2*Table1*List_Tree2")
(cx-gui-do cx-set-list-tree-selections "NavigationPane*Frame2*Table1*List_Tree2" (list "Results|Graphics|Contours"))
(cx-gui-do cx-set-list-selections "Contours*Table1*Frame3*Table1*DropDownList1(Contours of)" '( 2))
(cx-gui-do cx-activate-item "Contours*Table1*Frame3*Table1*DropDownList1(Contours of)")
(cx-gui-do cx-set-list-selections "Contours*Table1*Frame3*Table1*DropDownList2" '( 1))
(cx-gui-do cx-activate-item "Contours*Table1*Frame3*Table1*DropDownList2")
(cx-gui-do cx-activate-item "Contours*PanelButtons*PushButton1(OK)")
(cx-gui-do cx-activate-item "Contours*PanelButtons*PushButton2(Cancel)")
(cx-gui-do cx-set-list-tree-selections "NavigationPane*Frame2*Table1*List_Tree2" (list "Results|Graphics|Contours|contour-2"))
(cx-gui-do cx-list-tree-right-click "NavigationPane*Frame2*Table1*List_Tree2" )
(cx-gui-do cx-set-list-tree-selections "NavigationPane*Frame2*Table1*List_Tree2" (list "Results|Graphics|Contours|contour-2"))
(cx-gui-do cx-set-list-tree-selections "NavigationPane*Frame2*Table1*List_Tree2" (list "Results|Graphics|Contours|contour-2"))
(cx-gui-do cx-activate-item "NavigationPane*Frame2*Table1*List_Tree2")
(cx-gui-do cx-set-list-tree-selections "NavigationPane*Frame2*Table1*List_Tree2" (list "Results|Graphics|Contours|contour-2"))
(cx-gui-do cx-activate-item "Contours*PanelButtons*PushButton2(Cancel)")
(cx-gui-do cx-set-list-tree-selections "NavigationPane*Frame2*Table1*List_Tree2" (list "Results|Graphics|Contours|contour-1"))
(cx-gui-do cx-list-tree-right-click "NavigationPane*Frame2*Table1*List_Tree2" )
(cx-gui-do cx-activate-item "MenuBar*PopupMenuTree-contour-1*Delete")
(cx-gui-do cx-activate-item "Question*OK")
(cx-gui-do cx-activate-item "Ribbon*Frame1*Frame2(Domain)*Table1*Table3(Surface)*PushButton1(Create)")
(cx-gui-do cx-activate-item "MenuBar*PopupMenuCreate*Line/Rake...")
(cx-gui-do cx-set-real-entry-list "Line/Rake Surface*Table1*Frame5(End Points)*Table1*RealEntry4(x1)" '( 2))
(cx-gui-do cx-activate-item "Line/Rake Surface*PanelButtons*PushButton1(OK)")
(cx-gui-do cx-activate-item "Line/Rake Surface*PanelButtons*PushButton2(Cancel)")
(cx-gui-do cx-set-list-tree-selections "NavigationPane*Frame2*Table1*List_Tree2" (list ))
(cx-gui-do cx-set-list-tree-selections "NavigationPane*Frame2*Table1*List_Tree2" (list "Results|Plots|XY Plot"))
(cx-gui-do cx-set-list-tree-selections "NavigationPane*Frame2*Table1*List_Tree2" (list "Results|Plots|XY Plot"))
(cx-gui-do cx-activate-item "NavigationPane*Frame2*Table1*List_Tree2")
(cx-gui-do cx-set-list-tree-selections "NavigationPane*Frame2*Table1*List_Tree2" (list "Results|Plots|XY Plot"))
(cx-gui-do cx-set-list-selections "Solution XY Plot*Table1*Table3*Frame3*List1(Surfaces)" '( 4))
(cx-gui-do cx-activate-item "Solution XY Plot*Table1*Table3*Frame3*List1(Surfaces)")
(cx-gui-do cx-set-list-selections "Solution XY Plot*Table1*Table3*Table1*DropDownList1(Y Axis Function)" '( 2))
(cx-gui-do cx-activate-item "Solution XY Plot*Table1*Table3*Table1*DropDownList1(Y Axis Function)")
(cx-gui-do cx-set-list-selections "Solution XY Plot*Table1*Table3*Table1*DropDownList2" '( 1))
(cx-gui-do cx-activate-item "Solution XY Plot*Table1*Table3*Table1*DropDownList2")
(cx-gui-do cx-activate-item "Solution XY Plot*PanelButtons*PushButton1(OK)")
(cx-gui-do cx-activate-item "Solution XY Plot*PanelButtons*PushButton2(Cancel)")
(cx-gui-do cx-activate-item "MenuBar*WriteSubMenu*Case...")
(cx-gui-do cx-set-file-dialog-entries "Select File" '( "C:/Users/y.chavali.176/OneDrive - Cranfield University/fm_assignment/2m_geometry/coarse2m.cas.h5") "CFF Case Files (*.cas.h5 )")
Fast-loading "C:\PROGRA~1\ANSYSI~1\v252\fluent\fluent25.2.0\\addons\afd\lib\hdfio.bin"
Done.

Writing to 37PCL046:"C:/Users/y.chavali.176/OneDrive - Cranfield University/fm_assignment/2m_geometry/coarse2m.cas.h5" in NODE0 mode and compression level 1 ...
Grouping cells for Laplace smoothing ...
         891 cells,     1 zone  ...
        1890 faces,     5 zones ...
        1000 nodes,     1 zone  ...
  Done.
Done.
(cx-gui-do cx-activate-item "MenuBar*ReadSubMenu*Mesh...")
(cx-gui-do cx-set-toggle-button2 "Read Mesh Options*Table1(Options)*ToggleBox1*Replace mesh" #t)
(cx-gui-do cx-activate-item "Read Mesh Options*Table1(Options)*ToggleBox1*Replace mesh")
(cx-gui-do cx-activate-item "Read Mesh Options*PanelButtons*PushButton1(OK)")
(cx-gui-do cx-set-file-dialog-entries "Select File" '( "C:/Users/y.chavali.176/OneDrive - Cranfield University/fm_assignment/ICEM/fine2m.msh") "All Mesh Files (*.msh* *.MSH* )")

Writing Settings file "C:\Users\YCHAVA~1.176\AppData\Local\Temp\2"...
	writing rp variables ... Done.
	writing domain variables ... Done.
	writing fluid (type fluid) (mixture) ... Done.
	writing int_fluid (type interior) (mixture) ... Done.
	writing inlet (type velocity-inlet) (mixture) ... Done.
	writing outlet (type pressure-outlet) (mixture) ... Done.
	writing topwall (type wall) (mixture) ... Done.
	writing bottomwall (type wall) (mixture) ... Done.
	writing zones map name-id ... Done.
Note: Rank = 0: Process affinity not being set (6).
Reading "C:/Users/y.chavali.176/OneDrive - Cranfield University/fm_assignment/ICEM/fine2m.msh"...
Buffering for file scan...


       Clearing partially read grid.
  100000 nodes.
   98901 quadrilateral cells, zone  9.
  196704 2D interior faces, zone 10.
      99 2D velocity-inlet faces, zone 11.
      99 2D pressure-outlet faces, zone 12.
     999 2D wall faces, zone 13.
     999 2D wall faces, zone 14.

Building...
     mesh
     materials,
     interface,
     domains,
     zones,
	bottomwall
	topwall
	outlet
	inlet
	int_fluid
	fluid
     parallel,
Done.
 Setting zone id of fluid to 8.
 Setting zone id of int_fluid to 9.
 Setting zone id of inlet to 10.
 Setting zone id of outlet to 11.
 Setting zone id of topwall to 12.
 Setting zone id of bottomwall to 13.
Done.

Setting fluid (mixture) ... Done.
Setting int_fluid (mixture) ... Done.
Setting inlet (mixture) ... Done.
Setting outlet (mixture) ... Done.
Setting topwall (mixture) ... Done.
Setting bottomwall (mixture) ... Done.

(cx-gui-do cx-set-list-tree-selections "NavigationPane*Frame2*Table1*List_Tree2" (list "Solution|Initialization"))
(cx-gui-do cx-set-list-tree-selections "NavigationPane*Frame2*Table1*List_Tree2" (list "Solution|Initialization"))
(cx-gui-do cx-activate-item "NavigationPane*Frame2*Table1*List_Tree2")
(cx-gui-do cx-set-list-tree-selections "NavigationPane*Frame2*Table1*List_Tree2" (list "Solution|Initialization"))
(cx-gui-do cx-activate-item "Solution Initialization*Table1*Frame9*PushButton1(Initialize)")
(cx-gui-do cx-set-list-tree-selections "NavigationPane*Frame2*Table1*List_Tree2" (list "Setup|General"))
(cx-gui-do cx-set-list-tree-selections "NavigationPane*Frame2*Table1*List_Tree2" (list "Setup|General"))
(cx-gui-do cx-activate-item "NavigationPane*Frame2*Table1*List_Tree2")
(cx-gui-do cx-set-list-tree-selections "NavigationPane*Frame2*Table1*List_Tree2" (list "Setup|General"))
(cx-gui-do cx-activate-item "General*Table1*ButtonBox1(Mesh)*PushButton2(Display)")
(cx-gui-do cx-activate-item "Mesh Display*PanelButtons*PushButton1(OK)")
(cx-gui-do cx-activate-item "Mesh Display*PanelButtons*PushButton2(Cancel)")
(cx-gui-do cx-set-list-tree-selections "NavigationPane*Frame2*Table1*List_Tree2" (list "Solution|Run Calculation"))
(cx-gui-do cx-set-list-tree-selections "NavigationPane*Frame2*Table1*List_Tree2" (list "Solution|Run Calculation"))
(cx-gui-do cx-activate-item "NavigationPane*Frame2*Table1*List_Tree2")
(cx-gui-do cx-set-list-tree-selections "NavigationPane*Frame2*Table1*List_Tree2" (list "Solution|Run Calculation"))
(cx-gui-do cx-activate-item "Run Calculation*Table1*Table6(Solution Advancement)*Table1*PushButton3(Calculate)")


  iter  continuity  x-velocity  y-velocity     time/iter
     1  0.0000e+00  9.4670e-03  0.0000e+00  0:05:42  999
     2  1.0000e+00  4.8190e-03  1.6532e-05  0:05:54  998

 Reversed flow on 18 faces (18.2% area) of pressure-outlet 11.
     3  1.0000e+00  2.5263e-03  2.4003e-05  0:05:36  997

 Reversed flow on 29 faces (29.3% area) of pressure-outlet 11.
     4  1.0000e+00  1.3241e-03  3.2098e-05  0:05:14  996

 Reversed flow on 23 faces (23.2% area) of pressure-outlet 11.
     5  8.5947e-01  7.1499e-04  3.2822e-05  0:04:57  995

 Reversed flow on 16 faces (16.2% area) of pressure-outlet 11.
     6  7.3275e-01  3.9152e-04  2.3335e-05  0:04:55  994

 Reversed flow on 10 faces (10.1% area) of pressure-outlet 11.
     7  6.6197e-01  2.3811e-04  1.4022e-05  0:04:49  993
     8  7.5004e-01  1.6686e-04  9.3300e-06  0:04:44  992
     9  8.3335e-01  1.3372e-04  7.8923e-06  0:04:38  991

 Reversed flow on 5 faces (5.1% area) of pressure-outlet 11.
    10  1.0475e+00  1.2716e-04  9.5015e-06  0:04:29  990

 Reversed flow on 19 faces (19.2% area) of pressure-outlet 11.
    11  1.0982e+00  1.0108e-04  3.6225e-05  0:04:13  989

 Reversed flow on 17 faces (17.2% area) of pressure-outlet 11.

  iter  continuity  x-velocity  y-velocity     time/iter
    12  7.2190e-01  8.7193e-05  3.1931e-05  0:04:01  988

 Reversed flow on 10 faces (10.1% area) of pressure-outlet 11.
    13  6.4509e-01  8.0767e-05  1.6843e-05  0:03:58  987

 Reversed flow on 2 faces (2.0% area) of pressure-outlet 11.
    14  9.1398e-01  1.0416e-04  1.4275e-05  0:04:09  986

 Reversed flow on 12 faces (12.1% area) of pressure-outlet 11.
    15  1.1349e+00  2.0968e-04  2.2765e-05  0:04:08  985

 Reversed flow on 36 faces (36.4% area) of pressure-outlet 11.
    16  1.5223e+00  1.6895e-04  5.0922e-05  0:03:59  984

 Reversed flow on 28 faces (28.3% area) of pressure-outlet 11.
    17  1.3303e+00  1.3506e-04  5.3229e-05  0:03:59  983

 Reversed flow on 18 faces (18.2% area) of pressure-outlet 11.
    18  1.1786e+00  1.5267e-04  4.5575e-05  0:04:07  982

 Reversed flow on 16 faces (16.2% area) of pressure-outlet 11.
    19  1.3183e+00  1.4460e-04  3.8222e-05  0:04:11  981

 Reversed flow on 9 faces (9.1% area) of pressure-outlet 11.
    20  1.5711e+00  9.3755e-05  2.6775e-05  0:04:20  980
    21  1.2810e+00  9.4344e-05  1.8093e-05  0:04:23  979

 Reversed flow on 19 faces (19.2% area) of pressure-outlet 11.
    22  1.1793e+00  1.6569e-04  4.4056e-05  0:04:20  978

 Reversed flow on 24 faces (24.2% area) of pressure-outlet 11.

  iter  continuity  x-velocity  y-velocity     time/iter
    23  1.3646e+00  1.0290e-04  4.5611e-05  0:04:09  977

 Reversed flow on 13 faces (13.1% area) of pressure-outlet 11.
    24  1.2560e+00  7.8299e-05  3.1941e-05  0:04:13  976

 Reversed flow on 7 faces (7.1% area) of pressure-outlet 11.
    25  8.9367e-01  1.0898e-04  2.1529e-05  0:04:10  975

 Reversed flow on 1 face (1.0% area) of pressure-outlet 11.
    26  1.0912e+00  1.1216e-04  1.6978e-05  0:04:16  974

 Reversed flow on 17 faces (17.2% area) of pressure-outlet 11.
    27  1.3482e+00  2.1090e-04  2.0266e-05  0:04:13  973

 Reversed flow on 30 faces (30.3% area) of pressure-outlet 11.
    28  1.4461e+00  1.2960e-04  3.7972e-05  0:04:02  972

 Reversed flow on 17 faces (17.2% area) of pressure-outlet 11.
    29  1.1126e+00  1.0350e-04  3.3664e-05  0:04:03  971

 Reversed flow on 9 faces (9.1% area) of pressure-outlet 11.
    30  1.0461e+00  1.2437e-04  2.7840e-05  0:04:11  970

 Reversed flow on 4 faces (4.0% area) of pressure-outlet 11.
    31  1.2346e+00  1.2260e-04  2.3387e-05  0:04:13  969

 Reversed flow on 18 faces (18.2% area) of pressure-outlet 11.
    32  1.4896e+00  2.0800e-04  3.6087e-05  0:04:15  968

 Reversed flow on 28 faces (28.3% area) of pressure-outlet 11.
    33  1.4292e+00  1.5082e-04  6.6656e-05  0:04:04  967

 Reversed flow on 20 faces (20.2% area) of pressure-outlet 11.

  iter  continuity  x-velocity  y-velocity     time/iter
    34  1.1633e+00  1.3565e-04  6.5241e-05  0:05:06  966

 Reversed flow on 18 faces (18.2% area) of pressure-outlet 11.
    35  1.1540e+00  1.4562e-04  6.1452e-05  0:04:50  965

 Reversed flow on 21 faces (21.2% area) of pressure-outlet 11.
    36  1.3642e+00  1.6202e-04  6.7564e-05  0:04:37  964

 Reversed flow on 32 faces (32.3% area) of pressure-outlet 11.
    37  1.4539e+00  1.5139e-04  7.4758e-05  0:04:20  963

 Reversed flow on 31 faces (31.3% area) of pressure-outlet 11.
    38  1.2132e+00  9.2530e-05  4.5897e-05  0:04:04  962

 Reversed flow on 11 faces (11.1% area) of pressure-outlet 11.
    39  9.8791e-01  1.0641e-04  2.6138e-05  0:04:09  961

 Reversed flow on 13 faces (13.1% area) of pressure-outlet 11.
    40  9.7048e-01  1.3274e-04  2.1399e-05  0:04:09  960

 Reversed flow on 21 faces (21.2% area) of pressure-outlet 11.
    41  1.2866e+00  9.6704e-05  2.1451e-05  0:04:09  959

 Reversed flow on 21 faces (21.2% area) of pressure-outlet 11.
    42  1.2969e+00  1.4220e-04  3.5423e-05  0:04:02  958

 Reversed flow on 21 faces (21.2% area) of pressure-outlet 11.
    43  9.5666e-01  1.4758e-04  4.7742e-05  0:04:01  957

 Reversed flow on 16 faces (16.2% area) of pressure-outlet 11.
    44  1.0455e+00  1.4594e-04  4.9701e-05  0:04:03  956

 Reversed flow on 12 faces (12.1% area) of pressure-outlet 11.

  iter  continuity  x-velocity  y-velocity     time/iter
    45  1.3864e+00  1.2324e-04  4.2934e-05  0:04:07  955

 Reversed flow on 21 faces (21.2% area) of pressure-outlet 11.
    46  1.4358e+00  2.2598e-04  8.4457e-05  0:04:06  954

 Reversed flow on 24 faces (24.2% area) of pressure-outlet 11.
    47  1.5640e+00  2.1487e-04  1.0544e-04  0:04:03  953

 Reversed flow on 28 faces (28.3% area) of pressure-outlet 11.
    48  1.5546e+00  1.8025e-04  9.6842e-05  0:03:54  952

 Reversed flow on 27 faces (27.3% area) of pressure-outlet 11.
    49  1.5069e+00  1.4081e-04  7.3536e-05  0:03:46  951

 Reversed flow on 29 faces (29.3% area) of pressure-outlet 11.
    50  1.1703e+00  1.1629e-04  4.9611e-05  0:03:45  950

 Reversed flow on 31 faces (31.3% area) of pressure-outlet 11.
    51  1.1058e+00  9.5189e-05  3.5622e-05  0:03:43  949

 Reversed flow on 27 faces (27.3% area) of pressure-outlet 11.
    52  9.8870e-01  7.1312e-05  2.8523e-05  0:03:44  948

 Reversed flow on 24 faces (24.2% area) of pressure-outlet 11.
    53  8.1382e-01  7.0696e-05  2.3534e-05  0:03:49  947

 Reversed flow on 18 faces (18.2% area) of pressure-outlet 11.
    54  6.9962e-01  7.4798e-05  2.0649e-05  0:03:58  946

 Reversed flow on 3 faces (3.0% area) of pressure-outlet 11.
    55  7.1445e-01  7.2948e-05  1.8527e-05  0:04:03  945

 Reversed flow on 6 faces (6.1% area) of pressure-outlet 11.

  iter  continuity  x-velocity  y-velocity     time/iter
    56  8.6989e-01  7.8367e-05  1.7508e-05  0:04:05  944

 Reversed flow on 4 faces (4.0% area) of pressure-outlet 11.
    57  8.8444e-01  7.5331e-05  1.8046e-05  0:04:07  943

 Reversed flow on 8 faces (8.1% area) of pressure-outlet 11.
    58  8.4458e-01  1.1012e-04  2.6698e-05  0:04:08  942

 Reversed flow on 18 faces (18.2% area) of pressure-outlet 11.
    59  9.0634e-01  1.5384e-04  5.6375e-05  0:04:04  941

 Reversed flow on 22 faces (22.2% area) of pressure-outlet 11.
    60  1.0770e+00  1.5285e-04  7.3484e-05  0:03:59  940

 Reversed flow on 24 faces (24.2% area) of pressure-outlet 11.
    61  1.1890e+00  1.3596e-04  7.8116e-05  0:03:57  939

 Reversed flow on 28 faces (28.3% area) of pressure-outlet 11.
    62  1.0308e+00  1.2919e-04  7.1040e-05  0:03:52  938

 Reversed flow on 32 faces (32.3% area) of pressure-outlet 11.
    63  9.8114e-01  1.0954e-04  5.6461e-05  0:03:44  937

 Reversed flow on 28 faces (28.3% area) of pressure-outlet 11.
    64  9.7739e-01  8.5350e-05  4.1393e-05  0:03:45  936

 Reversed flow on 28 faces (28.3% area) of pressure-outlet 11.
    65  8.3142e-01  8.0339e-05  2.9388e-05  0:03:45  935

 Reversed flow on 27 faces (27.3% area) of pressure-outlet 11.
    66  7.7393e-01  7.1039e-05  2.4003e-05  0:03:42  934

 Reversed flow on 20 faces (20.2% area) of pressure-outlet 11.

  iter  continuity  x-velocity  y-velocity     time/iter
    67  7.2612e-01  5.8260e-05  2.0681e-05  0:03:48  933

 Reversed flow on 13 faces (13.1% area) of pressure-outlet 11.
    68  6.3352e-01  6.4078e-05  1.8259e-05  0:03:55  932

 Reversed flow on 2 faces (2.0% area) of pressure-outlet 11.
    69  6.5243e-01  6.5874e-05  1.7509e-05  0:03:56  931

 Reversed flow on 3 faces (3.0% area) of pressure-outlet 11.
    70  7.1777e-01  6.6936e-05  1.6656e-05  0:03:59  930

 Reversed flow on 4 faces (4.0% area) of pressure-outlet 11.
    71  7.1646e-01  6.9885e-05  1.5792e-05  0:04:00  929

 Reversed flow on 2 faces (2.0% area) of pressure-outlet 11.
    72  7.3625e-01  7.1341e-05  1.5378e-05  0:04:01  928

 Reversed flow on 10 faces (10.1% area) of pressure-outlet 11.
    73  8.3499e-01  1.3682e-04  3.0908e-05  0:04:02  927

 Reversed flow on 21 faces (21.2% area) of pressure-outlet 11.
    74  9.8671e-01  1.4376e-04  5.6916e-05  0:03:56  926

 Reversed flow on 24 faces (24.2% area) of pressure-outlet 11.
    75  1.0091e+00  1.0922e-04  5.6933e-05  0:03:45  925

 Reversed flow on 21 faces (21.2% area) of pressure-outlet 11.
    76  8.7336e-01  9.9667e-05  4.4637e-05  0:03:43  924

 Reversed flow on 21 faces (21.2% area) of pressure-outlet 11.
    77  7.5468e-01  1.0328e-04  3.6578e-05  0:03:47  923

 Reversed flow on 27 faces (27.3% area) of pressure-outlet 11.

  iter  continuity  x-velocity  y-velocity     time/iter
    78  9.2323e-01  9.5598e-05  3.1661e-05  0:03:44  922

 Reversed flow on 28 faces (28.3% area) of pressure-outlet 11.
    79  9.5013e-01  5.0464e-05  2.1891e-05  0:03:41  921

 Reversed flow on 14 faces (14.1% area) of pressure-outlet 11.
    80  7.2797e-01  5.4250e-05  1.5437e-05  0:03:45  920

 Reversed flow on 7 faces (7.1% area) of pressure-outlet 11.
    81  4.9661e-01  7.4990e-05  1.2591e-05  0:03:43  919
    82  6.6441e-01  7.2206e-05  1.2571e-05  0:03:47  918

 Reversed flow on 1 face (1.0% area) of pressure-outlet 11.
    83  8.3618e-01  6.3719e-05  1.1601e-05  0:03:50  917

 Reversed flow on 7 faces (7.1% area) of pressure-outlet 11.
    84  8.2383e-01  9.4330e-05  1.8262e-05  0:03:48  916

 Reversed flow on 14 faces (14.1% area) of pressure-outlet 11.
    85  8.0769e-01  9.9506e-05  3.3747e-05  0:03:55  915

 Reversed flow on 13 faces (13.1% area) of pressure-outlet 11.
    86  7.9947e-01  8.6703e-05  3.3902e-05  0:03:58  914

 Reversed flow on 8 faces (8.1% area) of pressure-outlet 11.
    87  8.7372e-01  7.3994e-05  2.8560e-05  0:04:02  913

 Reversed flow on 12 faces (12.1% area) of pressure-outlet 11.
    88  8.5448e-01  1.3196e-04  3.7917e-05  0:04:02  912

 Reversed flow on 18 faces (18.2% area) of pressure-outlet 11.

  iter  continuity  x-velocity  y-velocity     time/iter
    89  1.0916e+00  1.3444e-04  5.4739e-05  0:03:56  911

 Reversed flow on 24 faces (24.2% area) of pressure-outlet 11.
    90  1.0063e+00  9.6412e-05  4.2454e-05  0:03:51  910

 Reversed flow on 28 faces (28.3% area) of pressure-outlet 11.
    91  8.9442e-01  7.6558e-05  3.0959e-05  0:03:44  909

 Reversed flow on 19 faces (19.2% area) of pressure-outlet 11.
    92  8.3606e-01  5.7612e-05  2.1026e-05  0:03:43  908
    93  6.5078e-01  8.5812e-05  1.4724e-05  0:03:48  907

 Reversed flow on 3 faces (3.0% area) of pressure-outlet 11.
    94  7.9972e-01  1.0388e-04  1.4571e-05  0:03:52  906

 Reversed flow on 7 faces (7.1% area) of pressure-outlet 11.
    95  1.1084e+00  1.0743e-04  1.4661e-05  0:03:54  905
Done.

Operation stopped.
(cx-gui-do cx-set-list-tree-selections "NavigationPane*Frame2*Table1*List_Tree2" (list "Results|Graphics|Contours|contour-2"))
(cx-gui-do cx-set-list-tree-selections "NavigationPane*Frame2*Table1*List_Tree2" (list "Results|Graphics|Contours|contour-2"))
(cx-gui-do cx-activate-item "NavigationPane*Frame2*Table1*List_Tree2")
(cx-gui-do cx-set-list-tree-selections "NavigationPane*Frame2*Table1*List_Tree2" (list "Results|Graphics|Contours|contour-2"))
(cx-gui-do cx-activate-item "Contours*PanelButtons*PushButton1(OK)")
(cx-gui-do cx-activate-item "Contours*PanelButtons*PushButton2(Cancel)")
(cx-use-window-id 51)
(dolly-camera 0.175322 -0.0355694 0)
(cx-gui-do cx-set-list-tree-selections "NavigationPane*Frame2*Table1*List_Tree2" (list "Solution|Run Calculation"))
(cx-gui-do cx-set-list-tree-selections "NavigationPane*Frame2*Table1*List_Tree2" (list "Solution|Run Calculation"))
(cx-gui-do cx-activate-item "NavigationPane*Frame2*Table1*List_Tree2")
(cx-gui-do cx-set-list-tree-selections "NavigationPane*Frame2*Table1*List_Tree2" (list "Solution|Run Calculation"))
(cx-gui-do cx-set-list-tree-selections "NavigationPane*Frame2*Table1*List_Tree2" (list "Solution|Initialization"))
(cx-gui-do cx-set-list-tree-selections "NavigationPane*Frame2*Table1*List_Tree2" (list "Solution|Initialization"))
(cx-gui-do cx-activate-item "NavigationPane*Frame2*Table1*List_Tree2")
(cx-gui-do cx-set-list-tree-selections "NavigationPane*Frame2*Table1*List_Tree2" (list "Solution|Initialization"))
(cx-gui-do cx-activate-item "Solution Initialization*Table1*Frame9*PushButton1(Initialize)")
(cx-gui-do cx-activate-item "Question*OK")
(cx-gui-do cx-set-list-selections "Solution Initialization*Table1*DropDownList1(Compute from)" '( 1))
(cx-gui-do cx-activate-item "Solution Initialization*Table1*DropDownList1(Compute from)")
(cx-gui-do cx-activate-item "Solution Initialization*Table1*Frame9*PushButton1(Initialize)")
(cx-gui-do cx-activate-item "Question*OK")
(cx-gui-do cx-set-list-tree-selections "NavigationPane*Frame2*Table1*List_Tree2" (list "Setup|Reference Values"))
(cx-gui-do cx-set-list-tree-selections "NavigationPane*Frame2*Table1*List_Tree2" (list "Setup|Reference Values"))
(cx-gui-do cx-activate-item "NavigationPane*Frame2*Table1*List_Tree2")
(cx-gui-do cx-set-list-tree-selections "NavigationPane*Frame2*Table1*List_Tree2" (list "Setup|Reference Values"))
(cx-gui-do cx-set-list-tree-selections "NavigationPane*Frame2*Table1*List_Tree2" (list "Solution|Run Calculation"))
(cx-gui-do cx-set-list-tree-selections "NavigationPane*Frame2*Table1*List_Tree2" (list "Solution|Run Calculation"))
(cx-gui-do cx-activate-item "NavigationPane*Frame2*Table1*List_Tree2")
(cx-gui-do cx-set-list-tree-selections "NavigationPane*Frame2*Table1*List_Tree2" (list "Solution|Run Calculation"))
(cx-gui-do cx-activate-item "Run Calculation*Table1*Table6(Solution Advancement)*Table1*PushButton3(Calculate)")


  iter  continuity  x-velocity  y-velocity     time/iter
     1  0.0000e+00  9.4670e-03  0.0000e+00  0:04:27  999
     2  1.0000e+00  4.8190e-03  1.6532e-05  0:04:32  998

 Reversed flow on 18 faces (18.2% area) of pressure-outlet 11.
     3  1.0000e+00  2.5263e-03  2.4003e-05  0:04:32  997

 Reversed flow on 29 faces (29.3% area) of pressure-outlet 11.
     4  1.0000e+00  1.3241e-03  3.2098e-05  0:04:25  996

 Reversed flow on 23 faces (23.2% area) of pressure-outlet 11.
     5  8.5947e-01  7.1499e-04  3.2822e-05  0:04:21  995

 Reversed flow on 16 faces (16.2% area) of pressure-outlet 11.
     6  7.3275e-01  3.9152e-04  2.3335e-05  0:04:26  994

 Reversed flow on 10 faces (10.1% area) of pressure-outlet 11.
     7  6.6197e-01  2.3811e-04  1.4022e-05  0:04:26  993
     8  7.5004e-01  1.6686e-04  9.3300e-06  0:04:26  992
     9  8.3335e-01  1.3372e-04  7.8923e-06  0:04:33  991

 Reversed flow on 5 faces (5.1% area) of pressure-outlet 11.
    10  1.0475e+00  1.2716e-04  9.5015e-06  0:04:27  990

 Reversed flow on 19 faces (19.2% area) of pressure-outlet 11.
    11  1.0982e+00  1.0108e-04  3.6225e-05  0:04:12  989

 Reversed flow on 17 faces (17.2% area) of pressure-outlet 11.

  iter  continuity  x-velocity  y-velocity     time/iter
    12  7.2190e-01  8.7193e-05  3.1931e-05  0:04:05  988

 Reversed flow on 10 faces (10.1% area) of pressure-outlet 11.
    13  6.4509e-01  8.0767e-05  1.6843e-05  0:04:06  987

 Reversed flow on 2 faces (2.0% area) of pressure-outlet 11.
    14  9.1398e-01  1.0416e-04  1.4275e-05  0:04:11  986

 Reversed flow on 12 faces (12.1% area) of pressure-outlet 11.
    15  1.1349e+00  2.0968e-04  2.2765e-05  0:05:19  985

 Reversed flow on 36 faces (36.4% area) of pressure-outlet 11.
    16  1.5223e+00  1.6895e-04  5.0922e-05  0:04:54  984

 Reversed flow on 28 faces (28.3% area) of pressure-outlet 11.
    17  1.3303e+00  1.3506e-04  5.3229e-05  0:04:42  983

 Reversed flow on 18 faces (18.2% area) of pressure-outlet 11.
    18  1.1786e+00  1.5267e-04  4.5575e-05  0:04:40  982

 Reversed flow on 16 faces (16.2% area) of pressure-outlet 11.
    19  1.3183e+00  1.4460e-04  3.8222e-05  0:04:37  981

 Reversed flow on 9 faces (9.1% area) of pressure-outlet 11.
    20  1.5711e+00  9.3755e-05  2.6775e-05  0:04:39  980
    21  1.2810e+00  9.4344e-05  1.8093e-05  0:04:37  979

 Reversed flow on 19 faces (19.2% area) of pressure-outlet 11.
    22  1.1793e+00  1.6569e-04  4.4056e-05  0:04:29  978

 Reversed flow on 24 faces (24.2% area) of pressure-outlet 11.

  iter  continuity  x-velocity  y-velocity     time/iter
    23  1.3646e+00  1.0290e-04  4.5611e-05  0:04:14  977

 Reversed flow on 13 faces (13.1% area) of pressure-outlet 11.
    24  1.2560e+00  7.8299e-05  3.1941e-05  0:04:18  976

 Reversed flow on 7 faces (7.1% area) of pressure-outlet 11.
    25  8.9367e-01  1.0898e-04  2.1529e-05  0:04:09  975

 Reversed flow on 1 face (1.0% area) of pressure-outlet 11.
    26  1.0912e+00  1.1216e-04  1.6978e-05  0:04:14  974

 Reversed flow on 17 faces (17.2% area) of pressure-outlet 11.
    27  1.3482e+00  2.1090e-04  2.0266e-05  0:04:08  973

 Reversed flow on 30 faces (30.3% area) of pressure-outlet 11.
    28  1.4461e+00  1.2960e-04  3.7972e-05  0:03:58  972

 Reversed flow on 17 faces (17.2% area) of pressure-outlet 11.
    29  1.1126e+00  1.0350e-04  3.3664e-05  0:03:55  971

 Reversed flow on 9 faces (9.1% area) of pressure-outlet 11.
    30  1.0461e+00  1.2437e-04  2.7840e-05  0:04:02  970

 Reversed flow on 4 faces (4.0% area) of pressure-outlet 11.
    31  1.2346e+00  1.2260e-04  2.3387e-05  0:04:03  969

 Reversed flow on 18 faces (18.2% area) of pressure-outlet 11.
    32  1.4896e+00  2.0800e-04  3.6087e-05  0:04:05  968

 Reversed flow on 28 faces (28.3% area) of pressure-outlet 11.
    33  1.4292e+00  1.5082e-04  6.6656e-05  0:03:55  967

 Reversed flow on 20 faces (20.2% area) of pressure-outlet 11.

  iter  continuity  x-velocity  y-velocity     time/iter
    34  1.1633e+00  1.3565e-04  6.5241e-05  0:03:53  966

 Reversed flow on 18 faces (18.2% area) of pressure-outlet 11.
    35  1.1540e+00  1.4562e-04  6.1452e-05  0:03:55  965

 Reversed flow on 21 faces (21.2% area) of pressure-outlet 11.
    36  1.3642e+00  1.6202e-04  6.7564e-05  0:03:52  964

 Reversed flow on 32 faces (32.3% area) of pressure-outlet 11.
    37  1.4539e+00  1.5139e-04  7.4758e-05  0:03:44  963

 Reversed flow on 31 faces (31.3% area) of pressure-outlet 11.
    38  1.2132e+00  9.2530e-05  4.5897e-05  0:03:37  962

 Reversed flow on 11 faces (11.1% area) of pressure-outlet 11.
    39  9.8791e-01  1.0641e-04  2.6138e-05  0:03:47  961

 Reversed flow on 13 faces (13.1% area) of pressure-outlet 11.
    40  9.7048e-01  1.3274e-04  2.1399e-05  0:03:56  960

 Reversed flow on 21 faces (21.2% area) of pressure-outlet 11.
    41  1.2866e+00  9.6704e-05  2.1451e-05  0:04:01  959

 Reversed flow on 21 faces (21.2% area) of pressure-outlet 11.
    42  1.2969e+00  1.4220e-04  3.5423e-05  0:03:57  958

 Reversed flow on 21 faces (21.2% area) of pressure-outlet 11.
    43  9.5666e-01  1.4758e-04  4.7742e-05  0:03:52  957

 Reversed flow on 16 faces (16.2% area) of pressure-outlet 11.
    44  1.0455e+00  1.4594e-04  4.9701e-05  0:03:57  956

 Reversed flow on 12 faces (12.1% area) of pressure-outlet 11.

  iter  continuity  x-velocity  y-velocity     time/iter
    45  1.3864e+00  1.2324e-04  4.2934e-05  0:03:59  955

 Reversed flow on 21 faces (21.2% area) of pressure-outlet 11.
    46  1.4358e+00  2.2598e-04  8.4457e-05  0:03:55  954

 Reversed flow on 24 faces (24.2% area) of pressure-outlet 11.
    47  1.5640e+00  2.1487e-04  1.0544e-04  0:03:53  953

 Reversed flow on 28 faces (28.3% area) of pressure-outlet 11.
    48  1.5546e+00  1.8025e-04  9.6842e-05  0:03:49  952

 Reversed flow on 27 faces (27.3% area) of pressure-outlet 11.
    49  1.5069e+00  1.4081e-04  7.3536e-05  0:03:41  951

 Reversed flow on 29 faces (29.3% area) of pressure-outlet 11.
    50  1.1703e+00  1.1629e-04  4.9611e-05  0:03:42  950

 Reversed flow on 31 faces (31.3% area) of pressure-outlet 11.
    51  1.1058e+00  9.5189e-05  3.5622e-05  0:04:09  949

 Reversed flow on 27 faces (27.3% area) of pressure-outlet 11.
    52  9.8870e-01  7.1312e-05  2.8523e-05  0:04:06  948

 Reversed flow on 24 faces (24.2% area) of pressure-outlet 11.
    53  8.1382e-01  7.0696e-05  2.3534e-05  0:04:14  947

 Reversed flow on 18 faces (18.2% area) of pressure-outlet 11.
    54  6.9962e-01  7.4798e-05  2.0649e-05  0:04:12  946

 Reversed flow on 3 faces (3.0% area) of pressure-outlet 11.
    55  7.1445e-01  7.2948e-05  1.8527e-05  0:04:11  945

 Reversed flow on 6 faces (6.1% area) of pressure-outlet 11.

  iter  continuity  x-velocity  y-velocity     time/iter
    56  8.6989e-01  7.8367e-05  1.7508e-05  0:04:13  944

 Reversed flow on 4 faces (4.0% area) of pressure-outlet 11.
    57  8.8444e-01  7.5331e-05  1.8046e-05  0:04:13  943

 Reversed flow on 8 faces (8.1% area) of pressure-outlet 11.
    58  8.4458e-01  1.1012e-04  2.6698e-05  0:04:11  942

 Reversed flow on 18 faces (18.2% area) of pressure-outlet 11.
    59  9.0634e-01  1.5384e-04  5.6375e-05  0:04:04  941

 Reversed flow on 22 faces (22.2% area) of pressure-outlet 11.
    60  1.0770e+00  1.5285e-04  7.3484e-05  0:03:58  940

 Reversed flow on 24 faces (24.2% area) of pressure-outlet 11.
    61  1.1890e+00  1.3596e-04  7.8116e-05  0:03:54  939

 Reversed flow on 28 faces (28.3% area) of pressure-outlet 11.
    62  1.0308e+00  1.2919e-04  7.1040e-05  0:03:50  938

 Reversed flow on 32 faces (32.3% area) of pressure-outlet 11.
    63  9.8114e-01  1.0954e-04  5.6461e-05  0:03:41  937

 Reversed flow on 28 faces (28.3% area) of pressure-outlet 11.
    64  9.7739e-01  8.5350e-05  4.1393e-05  0:03:38  936

 Reversed flow on 28 faces (28.3% area) of pressure-outlet 11.
    65  8.3142e-01  8.0339e-05  2.9388e-05  0:03:37  935

 Reversed flow on 27 faces (27.3% area) of pressure-outlet 11.
    66  7.7393e-01  7.1039e-05  2.4003e-05  0:03:36  934

 Reversed flow on 20 faces (20.2% area) of pressure-outlet 11.

  iter  continuity  x-velocity  y-velocity     time/iter
    67  7.2612e-01  5.8260e-05  2.0681e-05  0:03:43  933

 Reversed flow on 13 faces (13.1% area) of pressure-outlet 11.
    68  6.3352e-01  6.4078e-05  1.8259e-05  0:03:49  932

 Reversed flow on 2 faces (2.0% area) of pressure-outlet 11.
    69  6.5243e-01  6.5874e-05  1.7509e-05  0:03:53  931

 Reversed flow on 3 faces (3.0% area) of pressure-outlet 11.
    70  7.1777e-01  6.6936e-05  1.6656e-05  0:03:55  930

 Reversed flow on 4 faces (4.0% area) of pressure-outlet 11.
    71  7.1646e-01  6.9885e-05  1.5792e-05  0:03:58  929

 Reversed flow on 2 faces (2.0% area) of pressure-outlet 11.
    72  7.3625e-01  7.1341e-05  1.5378e-05  0:04:02  928

 Reversed flow on 10 faces (10.1% area) of pressure-outlet 11.
    73  8.3499e-01  1.3682e-04  3.0908e-05  0:04:05  927

 Reversed flow on 21 faces (21.2% area) of pressure-outlet 11.
    74  9.8671e-01  1.4376e-04  5.6916e-05  0:03:59  926

 Reversed flow on 24 faces (24.2% area) of pressure-outlet 11.
    75  1.0091e+00  1.0922e-04  5.6933e-05  0:03:49  925

 Reversed flow on 21 faces (21.2% area) of pressure-outlet 11.
    76  8.7336e-01  9.9667e-05  4.4637e-05  0:03:45  924

 Reversed flow on 21 faces (21.2% area) of pressure-outlet 11.
    77  7.5468e-01  1.0328e-04  3.6578e-05  0:03:53  923

 Reversed flow on 27 faces (27.3% area) of pressure-outlet 11.

  iter  continuity  x-velocity  y-velocity     time/iter
    78  9.2323e-01  9.5598e-05  3.1661e-05  0:03:49  922

 Reversed flow on 28 faces (28.3% area) of pressure-outlet 11.
    79  9.5013e-01  5.0464e-05  2.1891e-05  0:03:46  921

 Reversed flow on 14 faces (14.1% area) of pressure-outlet 11.
    80  7.2797e-01  5.4250e-05  1.5437e-05  0:03:49  920

 Reversed flow on 7 faces (7.1% area) of pressure-outlet 11.
    81  4.9661e-01  7.4990e-05  1.2591e-05  0:03:46  919
    82  6.6441e-01  7.2206e-05  1.2571e-05  0:03:51  918

 Reversed flow on 1 face (1.0% area) of pressure-outlet 11.
    83  8.3618e-01  6.3719e-05  1.1601e-05  0:03:53  917

 Reversed flow on 7 faces (7.1% area) of pressure-outlet 11.
    84  8.2383e-01  9.4330e-05  1.8262e-05  0:03:47  916

 Reversed flow on 14 faces (14.1% area) of pressure-outlet 11.
    85  8.0769e-01  9.9506e-05  3.3747e-05  0:03:53  915

 Reversed flow on 13 faces (13.1% area) of pressure-outlet 11.
    86  7.9947e-01  8.6703e-05  3.3902e-05  0:03:53  914

 Reversed flow on 8 faces (8.1% area) of pressure-outlet 11.
    87  8.7372e-01  7.3994e-05  2.8560e-05  0:03:57  913

 Reversed flow on 12 faces (12.1% area) of pressure-outlet 11.
    88  8.5448e-01  1.3196e-04  3.7917e-05  0:03:59  912

 Reversed flow on 18 faces (18.2% area) of pressure-outlet 11.

  iter  continuity  x-velocity  y-velocity     time/iter
    89  1.0916e+00  1.3444e-04  5.4739e-05  0:03:52  911

 Reversed flow on 24 faces (24.2% area) of pressure-outlet 11.
    90  1.0063e+00  9.6412e-05  4.2454e-05  0:03:47  910

 Reversed flow on 28 faces (28.3% area) of pressure-outlet 11.
    91  8.9442e-01  7.6558e-05  3.0959e-05  0:03:38  909

 Reversed flow on 19 faces (19.2% area) of pressure-outlet 11.
    92  8.3606e-01  5.7612e-05  2.1026e-05  0:03:38  908
    93  6.5078e-01  8.5812e-05  1.4724e-05  0:03:41  907

 Reversed flow on 3 faces (3.0% area) of pressure-outlet 11.
    94  7.9972e-01  1.0388e-04  1.4571e-05  0:03:46  906

 Reversed flow on 7 faces (7.1% area) of pressure-outlet 11.
    95  1.1084e+00  1.0743e-04  1.4661e-05  0:03:48  905

 Reversed flow on 24 faces (24.2% area) of pressure-outlet 11.
    96  1.1858e+00  1.6398e-04  6.0168e-05  0:03:42  904

 Reversed flow on 25 faces (25.3% area) of pressure-outlet 11.
    97  1.0214e+00  1.4414e-04  7.3763e-05  0:03:42  903

 Reversed flow on 20 faces (20.2% area) of pressure-outlet 11.
    98  1.2023e+00  1.4988e-04  7.3507e-05  0:03:43  902

 Reversed flow on 22 faces (22.2% area) of pressure-outlet 11.
    99  1.3070e+00  2.0840e-04  9.5407e-05  0:03:42  901

 Reversed flow on 32 faces (32.3% area) of pressure-outlet 11.

  iter  continuity  x-velocity  y-velocity     time/iter
   100  1.5618e+00  2.0538e-04  1.1025e-04  0:03:33  900

 Reversed flow on 37 faces (37.4% area) of pressure-outlet 11.
   101  1.5684e+00  1.3496e-04  7.6128e-05  0:03:27  899

 Reversed flow on 26 faces (26.3% area) of pressure-outlet 11.
   102  1.2812e+00  1.2047e-04  4.9185e-05  0:03:27  898

 Reversed flow on 25 faces (25.3% area) of pressure-outlet 11.
   103  1.0026e+00  1.3544e-04  3.7536e-05  0:03:30  897

 Reversed flow on 30 faces (30.3% area) of pressure-outlet 11.
   104  1.1920e+00  1.1192e-04  3.1888e-05  0:03:28  896

 Reversed flow on 18 faces (18.2% area) of pressure-outlet 11.
   105  1.1923e+00  6.7704e-05  2.6400e-05  0:03:34  895

 Reversed flow on 21 faces (21.2% area) of pressure-outlet 11.
   106  9.5301e-01  1.3034e-04  2.7433e-05  0:03:31  894

 Reversed flow on 14 faces (14.1% area) of pressure-outlet 11.
   107  9.3551e-01  1.2800e-04  4.0066e-05  0:03:30  893

 Reversed flow on 11 faces (11.1% area) of pressure-outlet 11.
   108  1.0746e+00  1.0313e-04  3.6641e-05  0:03:36  892

 Reversed flow on 4 faces (4.0% area) of pressure-outlet 11.
   109  1.1002e+00  1.0825e-04  3.1358e-05  0:03:42  891

 Reversed flow on 16 faces (16.2% area) of pressure-outlet 11.
   110  1.2224e+00  1.9684e-04  6.0438e-05  0:03:43  890

 Reversed flow on 29 faces (29.3% area) of pressure-outlet 11.

  iter  continuity  x-velocity  y-velocity     time/iter
   111  1.4198e+00  2.3142e-04  1.0104e-04  0:03:42  889

 Reversed flow on 28 faces (28.3% area) of pressure-outlet 11.
   112  1.6010e+00  1.6882e-04  9.8602e-05  0:03:33  888

 Reversed flow on 26 faces (26.3% area) of pressure-outlet 11.
   113  1.3941e+00  1.6551e-04  7.9096e-05  0:03:33  887

 Reversed flow on 27 faces (27.3% area) of pressure-outlet 11.
   114  1.2478e+00  1.7936e-04  7.4530e-05  0:03:31  886

 Reversed flow on 32 faces (32.3% area) of pressure-outlet 11.
   115  1.4460e+00  1.3770e-04  6.0206e-05  0:03:24  885

 Reversed flow on 31 faces (31.3% area) of pressure-outlet 11.
   116  1.3967e+00  9.0041e-05  3.8619e-05  0:03:19  884

 Reversed flow on 20 faces (20.2% area) of pressure-outlet 11.
   117  1.1125e+00  9.2508e-05  2.7422e-05  0:03:25  883

 Reversed flow on 19 faces (19.2% area) of pressure-outlet 11.
   118  7.9164e-01  1.0929e-04  2.1655e-05  0:03:24  882

 Reversed flow on 18 faces (18.2% area) of pressure-outlet 11.
   119  1.0066e+00  8.1842e-05  1.8795e-05  0:03:30  881
   120  1.0173e+00  6.4323e-05  1.6555e-05  0:03:35  880

 Reversed flow on 15 faces (15.2% area) of pressure-outlet 11.
   121  9.5214e-01  1.4266e-04  3.5130e-05  0:03:35  879

 Reversed flow on 21 faces (21.2% area) of pressure-outlet 11.

  iter  continuity  x-velocity  y-velocity     time/iter
   122  9.8565e-01  1.2924e-04  4.4719e-05  0:03:34  878

 Reversed flow on 14 faces (14.1% area) of pressure-outlet 11.
   123  1.1139e+00  9.4711e-05  3.8132e-05  0:03:30  877

 Reversed flow on 8 faces (8.1% area) of pressure-outlet 11.
   124  1.0554e+00  8.8952e-05  2.6806e-05  0:03:32  876
   125  9.3490e-01  1.2415e-04  2.1246e-05  0:03:37  875

 Reversed flow on 21 faces (21.2% area) of pressure-outlet 11.
   126  1.2394e+00  2.8408e-04  3.7484e-05  0:03:36  874

 Reversed flow on 38 faces (38.4% area) of pressure-outlet 11.
   127  1.6936e+00  1.5326e-04  5.5924e-05  0:03:25  873

 Reversed flow on 34 faces (34.3% area) of pressure-outlet 11.
   128  1.1537e+00  1.2097e-04  4.4929e-05  0:03:20  872

 Reversed flow on 11 faces (11.1% area) of pressure-outlet 11.
   129  1.0268e+00  1.1447e-04  2.6765e-05  0:03:24  871

 Reversed flow on 7 faces (7.1% area) of pressure-outlet 11.
   130  1.0762e+00  1.3887e-04  2.1666e-05  0:03:29  870

 Reversed flow on 4 faces (4.0% area) of pressure-outlet 11.
   131  1.4406e+00  1.1164e-04  1.9093e-05  0:03:32  869

 Reversed flow on 24 faces (24.2% area) of pressure-outlet 11.
   132  1.5134e+00  1.8804e-04  5.0644e-05  0:03:31  868

 Reversed flow on 31 faces (31.3% area) of pressure-outlet 11.

  iter  continuity  x-velocity  y-velocity     time/iter
   133  1.1726e+00  1.4676e-04  6.2150e-05  0:03:22  867

 Reversed flow on 21 faces (21.2% area) of pressure-outlet 11.
   134  1.1686e+00  1.3402e-04  5.6367e-05  0:03:22  866

 Reversed flow on 17 faces (17.2% area) of pressure-outlet 11.
   135  1.2662e+00  1.4995e-04  4.8236e-05  0:03:28  865

 Reversed flow on 16 faces (16.2% area) of pressure-outlet 11.
   136  1.4166e+00  1.3325e-04  4.2619e-05  0:03:25  864

 Reversed flow on 23 faces (23.2% area) of pressure-outlet 11.
   137  1.4680e+00  1.1077e-04  3.6542e-05  0:03:25  863

 Reversed flow on 18 faces (18.2% area) of pressure-outlet 11.
   138  1.0574e+00  9.8374e-05  2.4142e-05  0:03:22  862

 Reversed flow on 19 faces (19.2% area) of pressure-outlet 11.
   139  1.0027e+00  9.8688e-05  2.0100e-05  0:03:21  861

 Reversed flow on 2 faces (2.0% area) of pressure-outlet 11.
   140  1.1237e+00  7.5295e-05  1.5337e-05  0:03:25  860

 Reversed flow on 8 faces (8.1% area) of pressure-outlet 11.
   141  1.0801e+00  1.4339e-04  2.0080e-05  0:03:25  859

 Reversed flow on 16 faces (16.2% area) of pressure-outlet 11.
   142  1.0852e+00  1.4144e-04  3.9411e-05  0:03:27  858

 Reversed flow on 20 faces (20.2% area) of pressure-outlet 11.
   143  1.2136e+00  1.5372e-04  5.7310e-05  0:03:25  857

 Reversed flow on 22 faces (22.2% area) of pressure-outlet 11.

  iter  continuity  x-velocity  y-velocity     time/iter
   144  1.3398e+00  1.7531e-04  7.3907e-05  0:03:24  856

 Reversed flow on 21 faces (21.2% area) of pressure-outlet 11.
   145  1.4120e+00  1.6965e-04  7.5763e-05  0:03:23  855

 Reversed flow on 22 faces (22.2% area) of pressure-outlet 11.
   146  1.5118e+00  1.7514e-04  8.0446e-05  0:03:22  854

 Reversed flow on 23 faces (23.2% area) of pressure-outlet 11.
   147  1.5957e+00  1.8506e-04  8.5324e-05  0:03:21  853

 Reversed flow on 30 faces (30.3% area) of pressure-outlet 11.
   148  1.4388e+00  1.8615e-04  8.1220e-05  0:03:21  852

 Reversed flow on 32 faces (32.3% area) of pressure-outlet 11.
   149  1.4590e+00  1.3602e-04  6.1813e-05  0:04:17  851

 Reversed flow on 25 faces (25.3% area) of pressure-outlet 11.
   150  1.3083e+00  1.1128e-04  4.2264e-05  0:04:04  850

 Reversed flow on 26 faces (26.3% area) of pressure-outlet 11.
   151  1.0160e+00  1.0932e-04  2.8141e-05  0:03:55  849

 Reversed flow on 28 faces (28.3% area) of pressure-outlet 11.
   152  1.0578e+00  8.7326e-05  2.1963e-05  0:03:49  848

 Reversed flow on 16 faces (16.2% area) of pressure-outlet 11.
   153  9.5955e-01  6.6690e-05  1.9777e-05  0:03:50  847

 Reversed flow on 18 faces (18.2% area) of pressure-outlet 11.
   154  8.4831e-01  1.2718e-04  2.5937e-05  0:03:43  846

 Reversed flow on 19 faces (19.2% area) of pressure-outlet 11.

  iter  continuity  x-velocity  y-velocity     time/iter
   155  8.8669e-01  1.2272e-04  3.9088e-05  0:03:35  845

 Reversed flow on 19 faces (19.2% area) of pressure-outlet 11.
   156  9.5553e-01  1.0099e-04  3.6263e-05  0:03:33  844

 Reversed flow on 8 faces (8.1% area) of pressure-outlet 11.
   157  1.0008e+00  8.3167e-05  2.6264e-05  0:03:35  843

 Reversed flow on 2 faces (2.0% area) of pressure-outlet 11.
   158  9.0083e-01  9.5917e-05  1.8895e-05  0:03:35  842

 Reversed flow on 4 faces (4.0% area) of pressure-outlet 11.
   159  9.8356e-01  1.1129e-04  1.6828e-05  0:03:37  841

 Reversed flow on 23 faces (23.2% area) of pressure-outlet 11.
   160  1.2018e+00  1.8255e-04  3.9608e-05  0:03:31  840

 Reversed flow on 28 faces (28.3% area) of pressure-outlet 11.
   161  1.1726e+00  1.2645e-04  5.0634e-05  0:03:20  839

 Reversed flow on 21 faces (21.2% area) of pressure-outlet 11.
   162  8.9014e-01  1.0177e-04  3.7663e-05  0:03:20  838

 Reversed flow on 17 faces (17.2% area) of pressure-outlet 11.
   163  8.5237e-01  1.0229e-04  2.7764e-05  0:03:22  837

 Reversed flow on 13 faces (13.1% area) of pressure-outlet 11.
   164  1.0034e+00  9.4156e-05  2.0274e-05  0:03:24  836

 Reversed flow on 14 faces (14.1% area) of pressure-outlet 11.
   165  1.0831e+00  9.1490e-05  1.8875e-05  0:03:28  835

 Reversed flow on 17 faces (17.2% area) of pressure-outlet 11.

  iter  continuity  x-velocity  y-velocity     time/iter
   166  9.7738e-01  1.1918e-04  2.0992e-05  0:03:26  834

 Reversed flow on 20 faces (20.2% area) of pressure-outlet 11.
   167  1.0605e+00  1.2396e-04  4.1644e-05  0:03:23  833

 Reversed flow on 21 faces (21.2% area) of pressure-outlet 11.
   168  9.8474e-01  1.1942e-04  4.4298e-05  0:03:20  832

 Reversed flow on 14 faces (14.1% area) of pressure-outlet 11.
   169  9.9771e-01  1.2217e-04  4.3394e-05  0:03:20  831

 Reversed flow on 11 faces (11.1% area) of pressure-outlet 11.
   170  1.1156e+00  1.1385e-04  3.9326e-05  0:03:22  830

 Reversed flow on 11 faces (11.1% area) of pressure-outlet 11.
   171  1.2271e+00  9.8797e-05  3.1867e-05  0:03:26  829

 Reversed flow on 6 faces (6.1% area) of pressure-outlet 11.
   172  1.2284e+00  1.2354e-04  3.2281e-05  0:03:28  828

 Reversed flow on 13 faces (13.1% area) of pressure-outlet 11.
   173  1.0597e+00  1.4140e-04  3.8683e-05  0:03:27  827

 Reversed flow on 27 faces (27.3% area) of pressure-outlet 11.
   174  1.2343e+00  1.5948e-04  4.8498e-05  0:03:18  826

 Reversed flow on 19 faces (19.2% area) of pressure-outlet 11.
   175  1.2821e+00  8.2772e-05  2.9751e-05  0:03:22  825

 Reversed flow on 10 faces (10.1% area) of pressure-outlet 11.
   176  9.0865e-01  1.1319e-04  2.2009e-05  0:03:23  824

 Reversed flow on 17 faces (17.2% area) of pressure-outlet 11.

  iter  continuity  x-velocity  y-velocity     time/iter
   177  1.0502e+00  1.2421e-04  2.1821e-05  0:03:19  823

 Reversed flow on 18 faces (18.2% area) of pressure-outlet 11.
   178  1.2660e+00  1.6539e-04  2.5985e-05  0:03:21  822

 Reversed flow on 22 faces (22.2% area) of pressure-outlet 11.
   179  1.2727e+00  1.7750e-04  6.4708e-05  0:03:19  821

 Reversed flow on 24 faces (24.2% area) of pressure-outlet 11.
   180  1.0721e+00  1.6862e-04  7.5753e-05  0:03:18  820

 Reversed flow on 20 faces (20.2% area) of pressure-outlet 11.
   181  1.4761e+00  1.8569e-04  8.7785e-05  0:03:24  819

 Reversed flow on 31 faces (31.3% area) of pressure-outlet 11.
   182  1.4669e+00  2.3860e-04  1.2455e-04  0:03:21  818

 Reversed flow on 39 faces (39.4% area) of pressure-outlet 11.
   183  1.6482e+00  1.9026e-04  1.1905e-04  0:03:14  817

 Reversed flow on 23 faces (23.2% area) of pressure-outlet 11.
   184  1.6292e+00  1.7956e-04  9.5617e-05  0:03:11  816

 Reversed flow on 30 faces (30.3% area) of pressure-outlet 11.
   185  1.3121e+00  2.4028e-04  1.0475e-04  0:03:11  815

 Reversed flow on 37 faces (37.4% area) of pressure-outlet 11.
   186  1.7444e+00  1.6600e-04  8.4959e-05  0:03:04  814

 Reversed flow on 34 faces (34.3% area) of pressure-outlet 11.
   187  1.6035e+00  1.0016e-04  4.8980e-05  0:03:02  813

 Reversed flow on 23 faces (23.2% area) of pressure-outlet 11.

  iter  continuity  x-velocity  y-velocity     time/iter
   188  1.1036e+00  1.1780e-04  3.3967e-05  0:03:10  812

 Reversed flow on 22 faces (22.2% area) of pressure-outlet 11.
   189  9.6708e-01  1.2451e-04  2.7456e-05  0:03:08  811

 Reversed flow on 21 faces (21.2% area) of pressure-outlet 11.
   190  1.2010e+00  8.7535e-05  2.3314e-05  0:03:13  810

 Reversed flow on 7 faces (7.1% area) of pressure-outlet 11.
   191  1.1206e+00  1.2962e-04  2.3774e-05  0:03:17  809

 Reversed flow on 18 faces (18.2% area) of pressure-outlet 11.
   192  1.0895e+00  1.7153e-04  5.2630e-05  0:03:16  808

 Reversed flow on 22 faces (22.2% area) of pressure-outlet 11.
   193  1.2074e+00  1.7826e-04  6.7244e-05  0:03:15  807

 Reversed flow on 25 faces (25.3% area) of pressure-outlet 11.
   194  1.4703e+00  2.0858e-04  9.3351e-05  0:03:11  806

 Reversed flow on 25 faces (25.3% area) of pressure-outlet 11.
   195  1.4758e+00  2.4171e-04  1.2461e-04  0:03:14  805

 Reversed flow on 34 faces (34.3% area) of pressure-outlet 11.
   196  1.5824e+00  2.4727e-04  1.3595e-04  0:03:11  804

 Reversed flow on 35 faces (35.4% area) of pressure-outlet 11.
   197  1.8332e+00  1.9877e-04  1.1216e-04  0:03:05  803

 Reversed flow on 27 faces (27.3% area) of pressure-outlet 11.
   198  1.6767e+00  1.7368e-04  8.2735e-05  0:03:04  802

 Reversed flow on 31 faces (31.3% area) of pressure-outlet 11.

  iter  continuity  x-velocity  y-velocity     time/iter
   199  1.2616e+00  1.7965e-04  6.7583e-05  0:03:05  801

 Reversed flow on 35 faces (35.4% area) of pressure-outlet 11.
   200  1.5260e+00  1.1546e-04  4.7685e-05  0:02:58  800

 Reversed flow on 29 faces (29.3% area) of pressure-outlet 11.
   201  1.3563e+00  8.1869e-05  3.0612e-05  0:02:58  799

 Reversed flow on 14 faces (14.1% area) of pressure-outlet 11.
   202  9.2652e-01  1.0416e-04  2.5200e-05  0:03:02  798

 Reversed flow on 18 faces (18.2% area) of pressure-outlet 11.
   203  9.3368e-01  1.1930e-04  2.5000e-05  0:03:04  797

 Reversed flow on 17 faces (17.2% area) of pressure-outlet 11.
   204  1.0987e+00  8.5375e-05  2.2828e-05  0:03:07  796

 Reversed flow on 11 faces (11.1% area) of pressure-outlet 11.
   205  1.1028e+00  1.5449e-04  3.0810e-05  0:03:10  795

 Reversed flow on 20 faces (20.2% area) of pressure-outlet 11.
   206  1.0694e+00  1.6340e-04  5.3907e-05  0:03:10  794

 Reversed flow on 21 faces (21.2% area) of pressure-outlet 11.
   207  1.2781e+00  1.5970e-04  6.7074e-05  0:03:07  793

 Reversed flow on 23 faces (23.2% area) of pressure-outlet 11.
   208  1.4769e+00  1.9256e-04  8.8677e-05  0:03:09  792

 Reversed flow on 24 faces (24.2% area) of pressure-outlet 11.
   209  1.4407e+00  2.1148e-04  1.1011e-04  0:03:07  791

 Reversed flow on 33 faces (33.3% area) of pressure-outlet 11.

  iter  continuity  x-velocity  y-velocity     time/iter
   210  1.5210e+00  2.1812e-04  1.1767e-04  0:03:04  790

 Reversed flow on 34 faces (34.3% area) of pressure-outlet 11.
   211  1.6597e+00  1.6994e-04  9.0402e-05  0:02:57  789

 Reversed flow on 26 faces (26.3% area) of pressure-outlet 11.
   212  1.5273e+00  1.4098e-04  6.1070e-05  0:02:57  788

 Reversed flow on 29 faces (29.3% area) of pressure-outlet 11.
   213  1.1201e+00  1.4771e-04  4.6065e-05  0:02:56  787

 Reversed flow on 33 faces (33.3% area) of pressure-outlet 11.
   214  1.3033e+00  1.0105e-04  3.2884e-05  0:02:58  786

[...]
(cx-gui-do cx-set-list-tree-selections "NavigationPane*Frame2*Table1*List_Tree2" (list "Results|Plots|XY Plot|xy-plot-1"))
(cx-gui-do cx-activate-item "NavigationPane*Frame2*Table1*List_Tree2")
(cx-gui-do cx-set-list-tree-selections "NavigationPane*Frame2*Table1*List_Tree2" (list "Results|Plots|XY Plot|xy-plot-1"))
(cx-gui-do cx-activate-item "Solution XY Plot*PanelButtons*PushButton1(OK)")
(cx-gui-do cx-set-toggle-button2 "Solution XY Plot*Table1*Table1*ButtonBox1(Options)*CheckButton4(Write to File)" #t)
(cx-gui-do cx-activate-item "Solution XY Plot*Table1*Table1*ButtonBox1(Options)*CheckButton4(Write to File)")
(cx-gui-do cx-activate-item "Solution XY Plot*PanelButtons*PushButton1(OK)")
(cx-gui-do cx-set-file-dialog-entries "Select File" '( "profile.txt") "All Files (*)")
(cx-gui-do cx-activate-item "Solution XY Plot*PanelButtons*PushButton2(Cancel)")
(cx-gui-do cx-activate-item "Ribbon*Frame1*Frame2(Domain)*Table1*Table3(Mesh)*PushButton6(Scale)")
(cx-gui-do cx-set-real-entry-list "Scale Mesh*Table1*Table2(Scaling)*Frame3(Scaling Factors)*RealEntry1(X)" '( 2))
(cx-gui-do cx-activate-item "Scale Mesh*Table1*Table2(Scaling)*PushButton4(Scale)")
(cx-gui-do cx-activate-item "Scale Mesh*PanelButtons*PushButton1(Close)")
(cx-gui-do cx-set-list-tree-selections "NavigationPane*Frame2*Table1*List_Tree2" (list "Solution|Initialization"))
(cx-gui-do cx-set-list-tree-selections "NavigationPane*Frame2*Table1*List_Tree2" (list "Solution|Initialization"))
(cx-gui-do cx-activate-item "NavigationPane*Frame2*Table1*List_Tree2")
(cx-gui-do cx-set-list-tree-selections "NavigationPane*Frame2*Table1*List_Tree2" (list "Solution|Initialization"))
(cx-gui-do cx-activate-item "Solution Initialization*Table1*Frame9*PushButton1(Initialize)")
(cx-gui-do cx-activate-item "Question*Cancel")
(cx-gui-do cx-set-list-selections "Solution Initialization*Table1*DropDownList1(Compute from)" '( 1))
(cx-gui-do cx-activate-item "Solution Initialization*Table1*DropDownList1(Compute from)")
(cx-gui-do cx-activate-item "Solution Initialization*Table1*Frame9*PushButton1(Initialize)")
(cx-gui-do cx-activate-item "Question*OK")
(cx-gui-do cx-set-list-tree-selections "NavigationPane*Frame2*Table1*List_Tree2" (list "Solution|Run Calculation"))
(cx-gui-do cx-set-list-tree-selections "NavigationPane*Frame2*Table1*List_Tree2" (list "Solution|Run Calculation"))
(cx-gui-do cx-activate-item "NavigationPane*Frame2*Table1*List_Tree2")
(cx-gui-do cx-set-list-tree-selections "NavigationPane*Frame2*Table1*List_Tree2" (list "Solution|Run Calculation"))
(cx-gui-do cx-activate-item "Run Calculation*Table1*Table6(Solution Advancement)*Table1*PushButton3(Calculate)")


  iter  continuity  x-velocity  y-velocity     time/iter
     1  0.0000e+00  9.4670e-03  0.0000e+00  0:41:45 9999
     2  1.0000e+00  4.8016e-03  2.4757e-05  0:40:50 9998
     3  9.8685e-01  2.4553e-03  2.0813e-05  0:40:39 9997
     4  9.6397e-01  1.2635e-03  1.3707e-05  0:41:22 9996
     5  7.1782e-01  6.5436e-04  8.6277e-06  0:42:51 9995
     6  5.9645e-01  3.3980e-04  5.7382e-06  0:43:49 9994
     7  5.1672e-01  1.7794e-04  3.8385e-06  0:45:28 9993
     8  4.6408e-01  9.4179e-05  2.6198e-06  0:46:26 9992
     9  4.2480e-01  5.0600e-05  1.8094e-06  0:47:11 9991
    10  3.9482e-01  2.7776e-05  1.2533e-06  0:46:20 9990
    11  3.7541e-01  1.5744e-05  9.3325e-07  0:45:32 9989

  iter  continuity  x-velocity  y-velocity     time/iter
    12  3.5400e-01  9.2167e-06  7.4617e-07  0:44:10 9988
    13  3.3735e-01  5.6557e-06  6.2752e-07  0:43:58 9987
    14  3.2037e-01  3.5886e-06  4.7924e-07  0:43:39 9986
    15  3.0487e-01  2.3741e-06  4.1801e-07  0:43:22 9985
    16  2.9177e-01  1.6553e-06  3.5237e-07  0:43:42 9984
    17  2.7900e-01  1.2210e-06  2.9497e-07  0:43:26 9983
    18  2.6715e-01  9.4998e-07  2.7581e-07  0:42:30 9982
    19  2.5619e-01  7.8184e-07  2.5471e-07  0:41:22 9981
    20  2.4636e-01  6.5914e-07  2.2706e-07  0:40:10 9980
    21  2.3677e-01  5.7427e-07  2.0821e-07  0:39:01 9979
    22  2.2787e-01  5.2001e-07  1.9790e-07  0:38:02 9978

  iter  continuity  x-velocity  y-velocity     time/iter
    23  2.1937e-01  4.7730e-07  1.8833e-07  0:36:34 9977
    24  2.1164e-01  4.3865e-07  1.7529e-07  0:35:37 9976
    25  2.0402e-01  4.0825e-07  1.6510e-07  0:34:42 9975
    26  1.9658e-01  3.8328e-07  1.5548e-07  0:34:24 9974
    27  1.8943e-01  3.6155e-07  1.4777e-07  0:33:56 9973
    28  1.8257e-01  3.4161e-07  1.3875e-07  0:33:26 9972
    29  1.7627e-01  3.2277e-07  1.2989e-07  0:33:05 9971
    30  1.7013e-01  3.0649e-07  1.2344e-07  0:33:21 9970
    31  1.6411e-01  2.9369e-07  1.1771e-07  0:32:49 9969
    32  1.5831e-01  2.8124e-07  1.1217e-07  0:32:50 9968
    33  1.5271e-01  2.6851e-07  1.0661e-07  0:32:35 9967

  iter  continuity  x-velocity  y-velocity     time/iter
    34  1.4743e-01  2.5646e-07  1.0067e-07  0:32:52 9966
    35  1.4238e-01  2.4507e-07  9.5619e-08  0:32:41 9965
    36  1.3754e-01  2.3424e-07  9.1385e-08  0:32:40 9964
    37  1.3278e-01  2.2581e-07  8.7753e-08  0:32:07 9963
    38  1.2818e-01  2.1744e-07  8.4006e-08  0:32:34 9962
    39  1.2371e-01  2.0873e-07  8.0538e-08  0:32:13 9961
    40  1.1942e-01  2.0026e-07  7.6686e-08  0:32:06 9960
    41  1.1535e-01  1.9210e-07  7.2926e-08  0:31:51 9959
    42  1.1142e-01  1.8447e-07  6.9781e-08  0:31:39 9958
    43  1.0763e-01  1.7727e-07  6.7034e-08  0:31:42 9957
    44  1.0396e-01  1.7028e-07  6.4360e-08  0:31:45 9956

  iter  continuity  x-velocity  y-velocity     time/iter
    45  1.0041e-01  1.6428e-07  6.1795e-08  0:31:43 9955
    46  9.6944e-02  1.5882e-07  5.9434e-08  0:31:41 9954
    47  9.3600e-02  1.5320e-07  5.7137e-08  0:31:42 9953
    48  9.0368e-02  1.4746e-07  5.4817e-08  0:31:40 9952
    49  8.7274e-02  1.4186e-07  5.2404e-08  0:32:11 9951
    50  8.4309e-02  1.3658e-07  5.0159e-08  0:32:07 9950
    51  8.1441e-02  1.3164e-07  4.8310e-08  0:32:05 9949
    52  7.8669e-02  1.2690e-07  4.6518e-08  0:31:37 9948
    53  7.5992e-02  1.2225e-07  4.4757e-08  0:31:54 9947
    54  7.3393e-02  1.1770e-07  4.3044e-08  0:32:09 9946
    55  7.0876e-02  1.1343e-07  4.1421e-08  0:31:45 9945

  iter  continuity  x-velocity  y-velocity     time/iter
    56  6.8445e-02  1.0938e-07  3.9818e-08  0:32:14 9944
    57  6.6094e-02  1.0558e-07  3.8289e-08  0:32:06 9943
    58  6.3821e-02  1.0221e-07  3.6844e-08  0:32:02 9942
    59  6.1618e-02  9.8658e-08  3.5433e-08  0:31:55 9941
    60  5.9505e-02  9.5297e-08  3.4020e-08  0:32:22 9940
    61  5.7483e-02  9.2006e-08  3.2692e-08  0:32:14 9939
    62  5.5534e-02  8.8718e-08  3.1551e-08  0:32:39 9938
    63  5.3642e-02  8.5713e-08  3.0426e-08  0:32:57 9937
    64  5.1810e-02  8.2754e-08  2.9434e-08  0:33:11 9936
    65  5.0036e-02  7.9986e-08  2.8343e-08  0:33:13 9935
    66  4.8323e-02  7.7248e-08  2.7321e-08  0:33:00 9934

  iter  continuity  x-velocity  y-velocity     time/iter
    67  4.6668e-02  7.4861e-08  2.6305e-08  0:33:03 9933
    68  4.5070e-02  7.2502e-08  2.5386e-08  0:36:34 9932
    69  4.3521e-02  7.0121e-08  2.4451e-08  0:35:53 9931
    70  4.2025e-02  6.7784e-08  2.3572e-08  0:35:12 9930
    71  4.0581e-02  6.5488e-08  2.2698e-08  0:34:28 9929
    72  3.9184e-02  6.3187e-08  2.1889e-08  0:34:08 9928
    73  3.7832e-02  6.1102e-08  2.1104e-08  0:33:24 9927
    74  3.6528e-02  5.8936e-08  2.0337e-08  0:33:19 9926
    75  3.5275e-02  5.6899e-08  1.9645e-08  0:32:39 9925
    76  3.4065e-02  5.4901e-08  1.8938e-08  0:33:02 9924
    77  3.2902e-02  5.3023e-08  1.8251e-08  0:32:40 9923

  iter  continuity  x-velocity  y-velocity     time/iter
    78  3.1778e-02  5.1121e-08  1.7590e-08  0:32:59 9922
    79  3.0693e-02  4.9449e-08  1.7013e-08  0:32:41 9921
    80  2.9642e-02  4.7815e-08  1.6451e-08  0:33:00 9920
    81  2.8626e-02  4.6053e-08  1.5893e-08  0:32:43 9919
    82  2.7646e-02  4.4468e-08  1.5339e-08  0:33:01 9918
    83  2.6699e-02  4.2915e-08  1.4785e-08  0:32:42 9917
    84  2.5789e-02  4.1473e-08  1.4276e-08  0:32:49 9916
    85  2.4907e-02  4.0183e-08  1.3781e-08  0:32:49 9915
    86  2.4056e-02  3.8968e-08  1.3284e-08  0:32:28 9914
    87  2.3232e-02  3.7727e-08  1.2851e-08  0:32:31 9913
    88  2.2435e-02  3.6433e-08  1.2400e-08  0:32:04 9912

  iter  continuity  x-velocity  y-velocity     time/iter
    89  2.1669e-02  3.5007e-08  1.2007e-08  0:31:58 9911
    90  2.0928e-02  3.3638e-08  1.1541e-08  0:31:53 9910
    91  2.0211e-02  3.2365e-08  1.1083e-08  0:32:09 9909
    92  1.9519e-02  3.1182e-08  1.0658e-08  0:32:02 9908
    93  1.8851e-02  3.0077e-08  1.0276e-08  0:31:52 9907
    94  1.8207e-02  2.9028e-08  9.9138e-09  0:32:23 9906
    95  1.7586e-02  2.8108e-08  9.5930e-09  0:32:22 9905
    96  1.6986e-02  2.7216e-08  9.2838e-09  0:32:11 9904
    97  1.6409e-02  2.6445e-08  8.9774e-09  0:32:32 9903
    98  1.5849e-02  2.5686e-08  8.6715e-09  0:32:36 9902
    99  1.5307e-02  2.4856e-08  8.3697e-09  0:32:06 9901

  iter  continuity  x-velocity  y-velocity     time/iter
   100  1.4782e-02  2.4023e-08  8.1034e-09  0:32:00 9900
   101  1.4274e-02  2.3463e-08  7.8223e-09  0:31:53 9899
   102  1.3784e-02  2.3019e-08  7.5866e-09  0:31:49 9898
   103  1.3312e-02  2.2633e-08  7.3309e-09  0:32:23 9897
   104  1.2860e-02  2.2240e-08  7.1161e-09  0:32:11 9896
   105  1.2425e-02  2.1819e-08  6.8658e-09  0:32:26 9895
   106  1.2012e-02  2.1050e-08  6.6614e-09  0:32:28 9894
   107  1.1631e-02  1.9522e-08  6.4228e-09  0:32:21 9893
   108  1.1255e-02  1.9175e-08  6.1946e-09  0:32:23 9892
   109  1.0875e-02  1.8894e-08  5.9819e-09  0:32:09 9891
   110  1.0504e-02  1.8380e-08  5.7579e-09  0:31:58 9890

  iter  continuity  x-velocity  y-velocity     time/iter
   111  1.0144e-02  1.7781e-08  5.5696e-09  0:31:52 9889
   112  9.7971e-03  1.7152e-08  5.3641e-09  0:31:46 9888
   113  9.4625e-03  1.6536e-08  5.1890e-09  0:31:45 9887
   114  9.1378e-03  1.5961e-08  5.0165e-09  0:31:39 9886
   115  8.8234e-03  1.5449e-08  4.8314e-09  0:31:37 9885
   116  8.5191e-03  1.5036e-08  4.6701e-09  0:31:34 9884
   117  8.2230e-03  1.4749e-08  4.4990e-09  0:31:42 9883
   118  7.9354e-03  1.4509e-08  4.3411e-09  0:31:50 9882
   119  7.6568e-03  1.4284e-08  4.1670e-09  0:31:55 9881
   120  7.3864e-03  1.4056e-08  3.9841e-09  0:31:49 9880
   121  7.1244e-03  1.3821e-08  3.8179e-09  0:31:49 9879

  iter  continuity  x-velocity  y-velocity     time/iter
   122  6.8704e-03  1.3568e-08  3.6560e-09  0:32:29 9878
   123  6.6245e-03  1.3304e-08  3.5273e-09  0:42:54 9877
   124  6.3867e-03  1.3029e-08  3.4031e-09  0:41:06 9876
   125  6.1563e-03  1.2743e-08  3.2746e-09  0:39:09 9875
   126  5.9333e-03  1.2447e-08  3.1514e-09  0:37:56 9874
   127  5.7176e-03  1.2139e-08  3.0369e-09  0:36:18 9873
   128  5.5089e-03  1.1822e-08  2.9255e-09  0:35:24 9872
   129  5.3070e-03  1.1498e-08  2.8171e-09  0:34:31 9871
   130  5.1118e-03  1.1156e-08  2.7048e-09  0:33:54 9870
   131  4.9233e-03  1.0789e-08  2.5941e-09  0:33:24 9869
   132  4.7415e-03  1.0417e-08  2.4872e-09  0:33:35 9868

  iter  continuity  x-velocity  y-velocity     time/iter
   133  4.5665e-03  1.0086e-08  2.3825e-09  0:33:03 9867
   134  4.3970e-03  9.7992e-09  2.2824e-09  0:32:45 9866
   135  4.2331e-03  9.4974e-09  2.1908e-09  0:32:30 9865
   136  4.0747e-03  9.1904e-09  2.1088e-09  0:32:49 9864
   137  3.9220e-03  8.8869e-09  2.0354e-09  0:32:34 9863
   138  3.7747e-03  8.5864e-09  1.9634e-09  0:32:49 9862
   139  3.6327e-03  8.2893e-09  1.8915e-09  0:33:05 9861
   140  3.4959e-03  7.9969e-09  1.8206e-09  0:32:47 9860
   141  3.3641e-03  7.7105e-09  1.7513e-09  0:32:59 9859
   142  3.2372e-03  7.4310e-09  1.6838e-09  0:33:12 9858
   143  3.1150e-03  7.1596e-09  1.6186e-09  0:32:50 9857

  iter  continuity  x-velocity  y-velocity     time/iter
   144  2.9974e-03  6.8962e-09  1.5558e-09  0:32:54 9856
   145  2.8843e-03  6.6431e-09  1.4957e-09  0:32:30 9855
   146  2.7753e-03  6.3984e-09  1.4384e-09  0:32:01 9854
   147  2.6704e-03  6.1604e-09  1.3832e-09  0:32:13 9853
   148  2.5694e-03  5.9315e-09  1.3301e-09  0:31:39 9852
   149  2.4722e-03  5.7117e-09  1.2791e-09  0:31:36 9851
   150  2.3786e-03  5.4985e-09  1.2302e-09  0:31:40 9850
   151  2.2885e-03  5.2924e-09  1.1838e-09  0:32:06 9849
   152  2.2017e-03  5.0937e-09  1.1397e-09  0:32:03 9848
   153  2.1182e-03  4.9021e-09  1.0967e-09  0:31:37 9847
   154  2.0379e-03  4.7174e-09  1.0549e-09  0:31:33 9846

  iter  continuity  x-velocity  y-velocity     time/iter
   155  1.9605e-03  4.5400e-09  1.0150e-09  0:32:00 9845
   156  1.8862e-03  4.3635e-09  9.7693e-10  0:31:51 9844
   157  1.8146e-03  4.1987e-09  9.4061e-10  0:31:52 9843
   158  1.7457e-03  4.0435e-09  9.0695e-10  0:31:46 9842
   159  1.6793e-03  3.9005e-09  8.7487e-10  0:31:30 9841
   160  1.6153e-03  3.7609e-09  8.4389e-10  0:31:29 9840
   161  1.5537e-03  3.6203e-09  8.1164e-10  0:31:18 9839
   162  1.4944e-03  3.4835e-09  7.7976e-10  0:31:29 9838
   163  1.4374e-03  3.3496e-09  7.4909e-10  0:31:29 9837
   164  1.3825e-03  3.2242e-09  7.1929e-10  0:31:29 9836
   165  1.3297e-03  3.1074e-09  6.9186e-10  0:31:24 9835

  iter  continuity  x-velocity  y-velocity     time/iter
   166  1.2788e-03  2.9932e-09  6.6582e-10  0:31:27 9834
   167  1.2299e-03  2.8828e-09  6.4072e-10  0:31:21 9833
   168  1.1828e-03  2.7771e-09  6.1696e-10  0:31:18 9832
   169  1.1375e-03  2.6737e-09  5.9511e-10  0:31:39 9831
   170  1.0938e-03  2.5760e-09  5.7159e-10  0:31:26 9830
   171  1.0519e-03  2.4803e-09  5.5087e-10  0:31:42 9829
   172  1.0115e-03  2.3874e-09  5.2978e-10  0:31:35 9828
   173  9.7274e-04  2.3010e-09  5.0675e-10  0:31:32 9827
   174  9.3538e-04  2.2115e-09  4.8853e-10  0:31:47 9826
   175  8.9952e-04  2.1279e-09  4.6973e-10  0:31:38 9825
   176  8.6500e-04  2.0492e-09  4.5239e-10  0:31:33 9824

  iter  continuity  x-velocity  y-velocity     time/iter
   177  8.3186e-04  1.9760e-09  4.3538e-10  0:31:08 9823
   178  7.9992e-04  1.9048e-09  4.2082e-10  0:31:07 9822
   179  7.6921e-04  1.8292e-09  4.0678e-10  0:31:07 9821
   180  7.3931e-04  1.7638e-09  3.9164e-10  0:31:09 9820
   181  7.1084e-04  1.7000e-09  3.7685e-10  0:31:10 9819
   182  6.8402e-04  1.6307e-09  3.6161e-10  0:31:11 9818
   183  6.5810e-04  1.5682e-09  3.4706e-10  0:30:41 9817
   184  6.3313e-04  1.5153e-09  3.3357e-10  0:30:47 9816
   185  6.0901e-04  1.4695e-09  3.1931e-10  0:30:51 9815
   186  5.8594e-04  1.4122e-09  3.0810e-10  0:30:56 9814
   187  5.6353e-04  1.3546e-09  2.9802e-10  0:30:58 9813

  iter  continuity  x-velocity  y-velocity     time/iter
   188  5.4215e-04  1.3085e-09  2.8896e-10  0:30:59 9812
   189  5.2144e-04  1.2724e-09  2.7759e-10  0:31:03 9811
   190  5.0149e-04  1.2169e-09  2.6673e-10  0:31:06 9810
   191  4.8267e-04  1.1603e-09  2.6322e-10  0:31:13 9809
   192  4.6402e-04  1.1273e-09  2.5009e-10  0:31:08 9808
   193  4.4596e-04  1.0930e-09  2.4072e-10  0:30:59 9807
   194  4.2900e-04  1.0465e-09  2.3410e-10  0:31:03 9806
   195  4.1248e-04  1.0068e-09  2.2572e-10  0:30:54 9805
   196  3.9652e-04  9.7537e-10  2.1514e-10  0:30:46 9804
   197  3.8128e-04  9.3673e-10  2.0472e-10  0:30:48 9803
   198  3.6644e-04  9.0355e-10  1.9942e-10  0:31:25 9802

  iter  continuity  x-velocity  y-velocity     time/iter
   199  3.5231e-04  8.7169e-10  1.9334e-10  0:31:23 9801
   200  3.3849e-04  8.4016e-10  1.8573e-10  0:31:22 9800
   201  3.2547e-04  8.0762e-10  1.7847e-10  0:31:18 9799
   202  3.1287e-04  7.7653e-10  1.7117e-10  0:31:47 9798
   203  3.0061e-04  7.5158e-10  1.6704e-10  0:31:39 9797
   204  2.8894e-04  7.2294e-10  1.6149e-10  0:31:43 9796
   205  2.7778e-04  6.9483e-10  1.5591e-10  0:31:36 9795
   206  2.6698e-04  6.7161e-10  1.5072e-10  0:31:19 9794
   207  2.5642e-04  6.4544e-10  1.4603e-10  0:31:15 9793
   208  2.4655e-04  6.2080e-10  1.3986e-10  0:31:12 9792
   209  2.3711e-04  5.9916e-10  1.3770e-10  0:31:18 9791

  iter  continuity  x-velocity  y-velocity     time/iter
   210  2.2783e-04  5.7688e-10  1.3311e-10  0:31:39 9790
   211  2.1882e-04  5.5541e-10  1.2817e-10  0:31:32 9789
   212  2.1062e-04  5.3619e-10  1.2692e-10  0:31:27 9788
   213  2.0258e-04  5.1763e-10  1.2638e-10  0:31:23 9787
   214  1.9477e-04  4.9924e-10  1.2611e-10  0:31:21 9786
   215  1.8729e-04  4.8267e-10  1.2453e-10  0:31:04 9785
   216  1.7974e-04  4.6471e-10  1.1721e-10  0:31:11 9784
   217  1.7263e-04  4.4729e-10  1.1015e-10  0:30:45 9783
   218  1.6597e-04  4.3133e-10  1.0566e-10  0:31:09 9782
   219  1.5956e-04  4.1460e-10  1.0376e-10  0:30:50 9781
   220  1.5325e-04  3.9934e-10  1.0188e-10  0:31:02 9780

  iter  continuity  x-velocity  y-velocity     time/iter
   221  1.4718e-04  3.8861e-10  9.7752e-11  0:30:54 9779
   222  1.4132e-04  3.7694e-10  9.1350e-11  0:31:17 9778
   223  1.3569e-04  3.6474e-10  8.7274e-11  0:30:54 9777
   224  1.3028e-04  3.5201e-10  8.3927e-11  0:30:55 9776
   225  1.2504e-04  3.3853e-10  8.1144e-11  0:30:58 9775
   226  1.1996e-04  3.2668e-10  7.7503e-11  0:30:27 9774
   227  1.1511e-04  3.1303e-10  7.4678e-11  0:30:55 9773
   228  1.1039e-04  2.9968e-10  7.2651e-11  0:30:37 9772
   229  1.0572e-04  2.8704e-10  7.0199e-11  0:30:41 9771
   230  1.0150e-04  2.7380e-10  6.6905e-11  0:30:16 9770
   231  9.7517e-05  2.5909e-10  6.4641e-11  0:30:28 9769
!  231 solution is converged

Calculation complete.
(cx-gui-do cx-activate-item "Information*OK")
(cx-gui-do cx-set-list-tree-selections "NavigationPane*Frame2*Table1*List_Tree2" (list "Results|Plots|XY Plot|xy-plot-1"))
(cx-gui-do cx-set-list-tree-selections "NavigationPane*Frame2*Table1*List_Tree2" (list "Results|Plots|XY Plot|xy-plot-1"))
(cx-gui-do cx-activate-item "NavigationPane*Frame2*Table1*List_Tree2")
(cx-gui-do cx-set-list-tree-selections "NavigationPane*Frame2*Table1*List_Tree2" (list "Results|Plots|XY Plot|xy-plot-1"))
(cx-gui-do cx-activate-item "Solution XY Plot*PanelButtons*PushButton1(OK)")
(cx-gui-do cx-activate-item "Solution XY Plot*PanelButtons*PushButton2(Cancel)")
(cx-gui-do cx-set-list-tree-selections "NavigationPane*Frame2*Table1*List_Tree2" (list "Results|Surfaces|line-6"))
(cx-gui-do cx-set-list-tree-selections "NavigationPane*Frame2*Table1*List_Tree2" (list "Results|Surfaces|line-6"))
(cx-gui-do cx-activate-item "NavigationPane*Frame2*Table1*List_Tree2")
(cx-gui-do cx-set-real-entry-list "Line/Rake Surface*Table1*Frame5(End Points)*Table1*RealEntry1(x0)" '( 1.6))
(cx-gui-do cx-set-real-entry-list "Line/Rake Surface*Table1*Frame5(End Points)*Table1*RealEntry4(x1)" '( 1.6))
(cx-gui-do cx-activate-item "Line/Rake Surface*PanelButtons*PushButton1(OK)")
(cx-gui-do cx-activate-item "Line/Rake Surface*PanelButtons*PushButton2(Cancel)")
(cx-gui-do cx-set-list-tree-selections "NavigationPane*Frame2*Table1*List_Tree2" (list "Results|Plots|XY Plot|xy-plot-1"))
(cx-gui-do cx-set-list-tree-selections "NavigationPane*Frame2*Table1*List_Tree2" (list "Results|Plots|XY Plot|xy-plot-1"))
(cx-gui-do cx-activate-item "NavigationPane*Frame2*Table1*List_Tree2")
(cx-gui-do cx-set-list-tree-selections "NavigationPane*Frame2*Table1*List_Tree2" (list "Results|Plots|XY Plot|xy-plot-1"))
(cx-gui-do cx-set-toggle-button2 "Solution XY Plot*Table1*Table1*ButtonBox1(Options)*CheckButton4(Write to File)" #t)
(cx-gui-do cx-activate-item "Solution XY Plot*Table1*Table1*ButtonBox1(Options)*CheckButton4(Write to File)")
(cx-gui-do cx-activate-item "Solution XY Plot*PanelButtons*PushButton1(OK)")
(cx-gui-do cx-set-file-dialog-entries "Select File" '( "profile.txt") "All Files (*)")
(cx-gui-do cx-activate-item "Question*OK")
 Error in the fluent (fl) process : ended abnormally

===================================================================================
=   BAD TERMINATION OF ONE OF YOUR APPLICATION PROCESSES
=   RANK 0 PID 32012 RUNNING AT 37PCL046
=   EXIT STATUS: 1073807364 (40010004)
===================================================================================
