Auto-Transcript Start Time:  12:31:24, 05 Nov 2025 GMT Standard Time 
Current Directory: "C:\Users\y.chavali.176\OneDrive - Cranfield University\fm_assignment\2m_geometry_400x40"

              Welcome to ANSYS Fluent 2025 R2

              Copyright 1987-2025 ANSYS, Inc. All Rights Reserved.
              Unauthorized use, distribution or duplication is prohibited.
              This product is subject to U.S. laws governing export and re-export.
              For full Legal Notice, see documentation.

Build Time: Jun 16 2025 10:46:43 EDT  Build Id: 10204  
 
Connected License Server List:	1055@cclic-2.central.cranfield.ac.uk

     --------------------------------------------------------------
     This is an academic version of ANSYS FLUENT. Usage of this product
     license is limited to the terms and conditions specified in your ANSYS
     license form, additional terms section.
     --------------------------------------------------------------
Host spawning Node 0 on machine "37PCL035" (win64).

-------------------------------------------------------------------------------
ID    Hostname  Core  O.S.         PID    Vendor                          
-------------------------------------------------------------------------------
n3    37PCL035  4/28  Windows-x64  18156  Intel(R) Core(TM) i7-14700      
n2    37PCL035  3/28  Windows-x64  50932  Intel(R) Core(TM) i7-14700      
n1    37PCL035  2/28  Windows-x64  29948  Intel(R) Core(TM) i7-14700      
n0*   37PCL035  1/28  Windows-x64  30904  Intel(R) Core(TM) i7-14700      
host  37PCL035        Windows-x64  18572  Intel(R) Core(TM) i7-14700      

MPI Option Selected: intel
Selected system interconnect: default
-------------------------------------------------------------------------------

Cleanup script file is C:\\Users\\y.chavali.176\\OneDrive - Cranfield University\\fm_assignment\\2m_geometry_400x40\\cleanup-fluent-37PCL035-18572.bat

Graphics driver currently in use: dx11


ANSYS Product Improvement Program is enabled for your future runs!

Posting ANSYS Product Improvement Program startup data
Done.
Fast-loading "C:\PROGRA~1\ANSYSI~1\v252\fluent\fluent25.2.0\\addons\afd\lib\hdfio.bin"
Done.
Note: Rank = 0: Process affinity not being set (6).
Note: Rank = 1: Process affinity not being set (6).
Note: Rank = 2: Process affinity not being set (6).
Note: Rank = 3: Process affinity not being set (6).

Reading from 37PCL035:"C:/Users/y.chavali.176/OneDrive - Cranfield University/fm_assignment/2m_geometry_400x40/fine2m.cas.h5" in NODE0 mode ...
  Reading mesh ...
         891 cells,     1 cell zone  ...
            891 quadrilateral cells,  zone id: 8
        1890 faces,     5 face zones ...
           1674 2D interior faces,  zone id: 9
              9 2D velocity-inlet faces,  zone id: 10
              9 2D pressure-outlet faces,  zone id: 11
             99 2D wall faces,  zone id: 12
             99 2D wall faces,  zone id: 13
        1000 nodes,     1 node zone  ...
  Done.


Building...
     mesh
	auto partitioning mesh by Metis (fast),
	distributing mesh
		parts....,
		faces....,
		nodes....,
		cells....,
        bandwidth reduction using Reverse Cuthill-McKee: 9/9 = 1
     materials,
     interface,
     domains,
	mixture
     zones,
	bottomwall
	topwall
	outlet
	inlet
	int_fluid
	fluid
     parallel,
Done.

> (cx-gui-do cx-activate-item "Color Theme Change*PanelButtons*PushButton2(Cancel)")
(cx-gui-do cx-activate-item "Key Behavioral Changes*PanelButtons*PushButton1(OK)")
(cx-gui-do cx-set-list-tree-selections "NavigationPane*Frame2*Table1*List_Tree2" (list "Setup|Boundary Conditions"))
(cx-gui-do cx-set-list-tree-selections "NavigationPane*Frame2*Table1*List_Tree2" (list "Setup|Boundary Conditions"))
(cx-gui-do cx-activate-item "NavigationPane*Frame2*Table1*List_Tree2")
(cx-gui-do cx-set-list-tree-selections "NavigationPane*Frame2*Table1*List_Tree2" (list "Setup|Boundary Conditions"))
(cx-gui-do cx-set-list-selections "Boundary Conditions*Table1*List2(Zone)" '( 3))
(cx-gui-do cx-activate-item "Boundary Conditions*Table1*List2(Zone)")
(cx-gui-do cx-activate-item "Boundary Conditions*Table1*Table3*Table4*ButtonBox1*PushButton1(Edit)")
(cx-gui-do cx-activate-tab-index "Pressure Outlet*Frame2*Frame2" 0)
(cx-gui-do cx-activate-tab-index "Pressure Outlet*Frame2*Frame2" 1)
(cx-gui-do cx-activate-tab-index "Pressure Outlet*Frame2*Frame2" 0)
(cx-gui-do cx-activate-tab-index "Pressure Outlet*Frame2*Frame2" 2)
(cx-gui-do cx-activate-tab-index "Pressure Outlet*Frame2*Frame2" 0)
(cx-gui-do cx-activate-tab-index "Pressure Outlet*Frame2*Frame2" 3)
(cx-gui-do cx-activate-tab-index "Pressure Outlet*Frame2*Frame2" 0)
(cx-gui-do cx-activate-tab-index "Pressure Outlet*Frame2*Frame2" 4)
(cx-gui-do cx-activate-tab-index "Pressure Outlet*Frame2*Frame2" 0)
(cx-gui-do cx-activate-tab-index "Pressure Outlet*Frame2*Frame2" 5)
(cx-gui-do cx-activate-tab-index "Pressure Outlet*Frame2*Frame2" 0)
(cx-gui-do cx-activate-tab-index "Pressure Outlet*Frame2*Frame2" 6)
(cx-gui-do cx-activate-tab-index "Pressure Outlet*Frame2*Frame2" 0)
(cx-gui-do cx-activate-tab-index "Pressure Outlet*Frame2*Frame2" 7)
(cx-gui-do cx-activate-tab-index "Pressure Outlet*Frame2*Frame2" 0)
(cx-gui-do cx-activate-tab-index "Pressure Outlet*Frame2*Frame2" 8)
(cx-gui-do cx-activate-tab-index "Pressure Outlet*Frame2*Frame2" 0)
(cx-gui-do cx-enable-apply-button "Pressure Outlet")
(cx-gui-do cx-set-toggle-button2 "Pressure Outlet*Frame2*Frame2*Frame1(Momentum)*Table1*CheckButton16(Prevent Reverse Flow)" #t)
(cx-gui-do cx-activate-item "Pressure Outlet*Frame2*Frame2*Frame1(Momentum)*Table1*CheckButton16(Prevent Reverse Flow)")
(cx-gui-do cx-activate-item "Pressure Outlet*PanelButtons*PushButton1(OK)")
(cx-gui-do cx-activate-item "Pressure Outlet*PanelButtons*PushButton2(Cancel)")
(cx-gui-do cx-activate-item "Ribbon*Frame1*Frame2(Domain)*Table1*Table3(Mesh)*PushButton1(Display)")
(cx-gui-do cx-activate-item "Mesh Display*PanelButtons*PushButton1(OK)")
(cx-gui-do cx-activate-item "Mesh Display*PanelButtons*PushButton2(Cancel)")
(cx-gui-do cx-activate-item "MenuBar*ReadSubMenu*Mesh...")
(cx-gui-do cx-set-toggle-button2 "Read Mesh Options*Table1(Options)*ToggleBox1*Replace mesh" #t)
(cx-gui-do cx-activate-item "Read Mesh Options*Table1(Options)*ToggleBox1*Replace mesh")
(cx-gui-do cx-activate-item "Read Mesh Options*PanelButtons*PushButton1(OK)")
(cx-gui-do cx-set-file-dialog-entries "Select File" '( "finer.msh") "All Mesh Files (*.msh* *.MSH* )")

Writing Settings file "C:\Users\YCHAVA~1.176\AppData\Local\Temp\2"...
	writing rp variables ... Done.
	writing domain variables ... Done.
	writing fluid (type fluid) (mixture) ... Done.
	writing int_fluid (type interior) (mixture) ... Done.
	writing inlet (type velocity-inlet) (mixture) ... Done.
	writing outlet (type pressure-outlet) (mixture) ... Done.
	writing topwall (type wall) (mixture) ... Done.
	writing bottomwall (type wall) (mixture) ... Done.
	writing zones map name-id ... Done.
Note: Rank = 0: Process affinity not being set (6).
Note: Rank = 1: Process affinity not being set (6).
Note: Rank = 2: Process affinity not being set (6).
Note: Rank = 3: Process affinity not being set (6).
Reading "C:/Users/y.chavali.176/OneDrive - Cranfield University/fm_assignment/2m_geometry_400x40/finer.msh"...
Buffering for file scan...


       Clearing partially read grid.
  101101 nodes.
  100000 quadrilateral cells, zone  8.
  198900 2D interior faces, zone  9.
     100 2D velocity-inlet faces, zone 10.
     100 2D pressure-outlet faces, zone 11.
    1000 2D wall faces, zone 12.
    1000 2D wall faces, zone 13.

Building...
     mesh
	auto partitioning mesh by Metis (fast),
	distributing mesh
		parts....,
		faces....,
		nodes....,
		cells....,
        bandwidth reduction using Reverse Cuthill-McKee: 100/105 = 0.952381
     materials,
     interface,
     domains,
     zones,
	bottomwall
	topwall
	outlet
	inlet
	int_fluid
	fluid
     parallel,
Done.
 Setting zone id of fluid to 8.
 Setting zone id of int_fluid to 9.
 Setting zone id of inlet to 10.
 Setting zone id of outlet to 11.
 Setting zone id of topwall to 12.
 Setting zone id of bottomwall to 13.
Done.

Setting fluid (mixture) ... Done.
Setting int_fluid (mixture) ... Done.
Setting inlet (mixture) ... Done.
Setting outlet (mixture) ... Done.
Setting topwall (mixture) ... Done.
Setting bottomwall (mixture) ... Done.

(cx-gui-do cx-set-list-tree-selections "NavigationPane*Frame2*Table1*List_Tree2" (list "Solution|Initialization"))
(cx-gui-do cx-set-list-tree-selections "NavigationPane*Frame2*Table1*List_Tree2" (list "Solution|Initialization"))
(cx-gui-do cx-activate-item "NavigationPane*Frame2*Table1*List_Tree2")
(cx-gui-do cx-set-list-tree-selections "NavigationPane*Frame2*Table1*List_Tree2" (list "Solution|Initialization"))
(cx-gui-do cx-set-list-selections "Solution Initialization*Table1*DropDownList1(Compute from)" '( 1))
(cx-gui-do cx-activate-item "Solution Initialization*Table1*DropDownList1(Compute from)")
(cx-gui-do cx-activate-item "Solution Initialization*Table1*Frame9*PushButton1(Initialize)")
(cx-gui-do cx-activate-item "Ribbon*Frame1*Frame2(Domain)*Table1*Table3(Mesh)*PushButton1(Display)")
(cx-gui-do cx-activate-item "Mesh Display*PanelButtons*PushButton1(OK)")
(cx-gui-do cx-activate-item "Mesh Display*PanelButtons*PushButton2(Cancel)")
(cx-gui-do cx-set-list-tree-selections "NavigationPane*Frame2*Table1*List_Tree2" (list "Solution|Run Calculation"))
(cx-gui-do cx-set-list-tree-selections "NavigationPane*Frame2*Table1*List_Tree2" (list "Solution|Run Calculation"))
(cx-gui-do cx-activate-item "NavigationPane*Frame2*Table1*List_Tree2")
(cx-gui-do cx-set-list-tree-selections "NavigationPane*Frame2*Table1*List_Tree2" (list "Solution|Run Calculation"))
(cx-gui-do cx-activate-item "Run Calculation*Table1*Table6(Solution Advancement)*Table1*PushButton3(Calculate)")


  iter  continuity  x-velocity  y-velocity     time/iter
     1  0.0000e+00  2.3657e-03  0.0000e+00  0:02:05  999
     2  1.0000e+00  1.2140e-03  3.8277e-06  0:02:19  998

 Artificial walls on 18 faces (18.0% area) of pressure-outlet 11 to prevent fluid from flowing into the boundary.
     3  1.0000e+00  6.2987e-04  4.8430e-06  0:02:11  997

 Artificial walls on 10 faces (10.0% area) of pressure-outlet 11 to prevent fluid from flowing into the boundary.
     4  9.3402e-01  3.2825e-04  4.2773e-06  0:02:02  996

 Artificial walls on 18 faces (18.0% area) of pressure-outlet 11 to prevent fluid from flowing into the boundary.
     5  6.3887e-01  1.7173e-04  2.9975e-06  0:01:57  995

 Artificial walls on 8 faces (8.0% area) of pressure-outlet 11 to prevent fluid from flowing into the boundary.
     6  5.6586e-01  9.4603e-05  2.0545e-06  0:01:51  994
     7  6.1335e-01  5.9622e-05  1.3107e-06  0:01:47  993
     8  6.1311e-01  4.0310e-05  1.3886e-06  0:01:41  992
     9  6.1654e-01  2.5197e-05  1.7678e-06  0:01:38  991
    10  5.4186e-01  1.2139e-05  1.8034e-06  0:01:37  990
    11  3.1684e-01  1.4136e-05  1.2297e-06  0:01:34  989

  iter  continuity  x-velocity  y-velocity     time/iter
    12  1.6966e-01  2.0612e-05  5.7997e-07  0:01:32  988
    13  5.2113e-01  2.5166e-05  1.2715e-06  0:01:30  987

 Artificial walls on 32 faces (32.0% area) of pressure-outlet 11 to prevent fluid from flowing into the boundary.
    14  1.3316e+00  2.1322e-05  2.7619e-06  0:01:28  986

 Artificial walls on 1 face (1.0% area) of pressure-outlet 11 to prevent fluid from flowing into the boundary.
    15  1.0433e+00  1.5098e-05  2.7242e-06  0:01:30  985

 Artificial walls on 4 faces (4.0% area) of pressure-outlet 11 to prevent fluid from flowing into the boundary.
    16  5.8469e-01  2.0018e-05  2.1198e-06  0:01:28  984
    17  7.1051e-01  2.5224e-05  1.9250e-06  0:01:26  983
    18  7.7408e-01  2.2172e-05  1.5047e-06  0:01:25  982

 Artificial walls on 21 faces (21.0% area) of pressure-outlet 11 to prevent fluid from flowing into the boundary.
    19  1.9298e+00  1.6988e-05  1.8455e-06  0:01:23  981
    20  1.1658e+00  1.5514e-05  1.9514e-06  0:01:27  980

 Artificial walls on 21 faces (21.0% area) of pressure-outlet 11 to prevent fluid from flowing into the boundary.
    21  4.8498e-01  1.6712e-05  1.5149e-06  0:01:24  979
    22  1.2591e+00  1.9400e-05  1.5162e-06  0:01:24  978

  iter  continuity  x-velocity  y-velocity     time/iter
    23  9.3634e-01  3.0788e-05  2.7879e-06  0:01:25  977

 Artificial walls on 36 faces (36.0% area) of pressure-outlet 11 to prevent fluid from flowing into the boundary.
    24  1.8992e+00  3.1466e-05  4.9920e-06  0:01:22  976

 Artificial walls on 9 faces (9.0% area) of pressure-outlet 11 to prevent fluid from flowing into the boundary.
    25  1.7183e+00  2.0580e-05  4.8796e-06  0:01:24  975

 Artificial walls on 2 faces (2.0% area) of pressure-outlet 11 to prevent fluid from flowing into the boundary.
    26  1.1171e+00  2.6040e-05  3.8639e-06  0:01:24  974

 Artificial walls on 4 faces (4.0% area) of pressure-outlet 11 to prevent fluid from flowing into the boundary.
    27  9.1401e-01  2.9472e-05  3.5174e-06  0:01:23  973
    28  1.1428e+00  2.4700e-05  3.2234e-06  0:01:22  972

 Artificial walls on 21 faces (21.0% area) of pressure-outlet 11 to prevent fluid from flowing into the boundary.
    29  2.3942e+00  2.2130e-05  2.9059e-06  0:01:20  971
    30  1.3490e+00  1.9306e-05  2.7873e-06  0:01:22  970

 Artificial walls on 21 faces (21.0% area) of pressure-outlet 11 to prevent fluid from flowing into the boundary.
    31  9.8030e-01  1.5559e-05  2.5961e-06  0:01:21  969

 Artificial walls on 5 faces (5.0% area) of pressure-outlet 11 to prevent fluid from flowing into the boundary.
    32  1.1508e+00  1.8651e-05  1.9753e-06  0:01:21  968
    33  1.2538e+00  2.9699e-05  3.7485e-06  0:01:21  967

 Artificial walls on 32 faces (32.0% area) of pressure-outlet 11 to prevent fluid from flowing into the boundary.

  iter  continuity  x-velocity  y-velocity     time/iter
    34  2.6489e+00  3.2097e-05  5.1650e-06  0:01:19  966

 Artificial walls on 12 faces (12.0% area) of pressure-outlet 11 to prevent fluid from flowing into the boundary.
    35  2.1012e+00  2.2881e-05  5.1289e-06  0:01:19  965

 Artificial walls on 11 faces (11.0% area) of pressure-outlet 11 to prevent fluid from flowing into the boundary.
    36  1.3100e+00  2.3028e-05  3.9456e-06  0:01:20  964

 Artificial walls on 10 faces (10.0% area) of pressure-outlet 11 to prevent fluid from flowing into the boundary.
    37  1.1314e+00  2.8922e-05  3.7894e-06  0:01:20  963
    38  1.4706e+00  2.8115e-05  3.3566e-06  0:01:21  962

 Artificial walls on 11 faces (11.0% area) of pressure-outlet 11 to prevent fluid from flowing into the boundary.
    39  2.4557e+00  2.7606e-05  3.0994e-06  0:01:20  961

 Artificial walls on 13 faces (13.0% area) of pressure-outlet 11 to prevent fluid from flowing into the boundary.
    40  1.7998e+00  2.3759e-05  3.6194e-06  0:01:18  960

 Artificial walls on 11 faces (11.0% area) of pressure-outlet 11 to prevent fluid from flowing into the boundary.
    41  1.4141e+00  1.8627e-05  3.2402e-06  0:01:20  959

 Artificial walls on 22 faces (22.0% area) of pressure-outlet 11 to prevent fluid from flowing into the boundary.
    42  8.6129e-01  1.7552e-05  2.6660e-06  0:01:19  958
    43  1.5577e+00  2.3388e-05  1.6905e-06  0:01:20  957
    44  1.1163e+00  3.4384e-05  2.7590e-06  0:01:21  956

 Artificial walls on 35 faces (35.0% area) of pressure-outlet 11 to prevent fluid from flowing into the boundary.

  iter  continuity  x-velocity  y-velocity     time/iter
    45  2.3386e+00  3.1255e-05  4.5291e-06  0:01:19  955

 Artificial walls on 7 faces (7.0% area) of pressure-outlet 11 to prevent fluid from flowing into the boundary.
    46  1.8533e+00  2.0379e-05  4.4134e-06  0:01:22  954

 Artificial walls on 5 faces (5.0% area) of pressure-outlet 11 to prevent fluid from flowing into the boundary.
    47  1.1722e+00  2.7573e-05  3.5553e-06  0:01:22  953

 Artificial walls on 3 faces (3.0% area) of pressure-outlet 11 to prevent fluid from flowing into the boundary.
    48  1.0733e+00  3.0709e-05  3.5049e-06  0:01:21  952
    49  1.1789e+00  2.5742e-05  3.0127e-06  0:01:20  951

 Artificial walls on 22 faces (22.0% area) of pressure-outlet 11 to prevent fluid from flowing into the boundary.
    50  1.9696e+00  2.2004e-05  3.2055e-06  0:01:18  950
    51  1.2730e+00  1.8415e-05  3.1313e-06  0:01:21  949

 Artificial walls on 17 faces (17.0% area) of pressure-outlet 11 to prevent fluid from flowing into the boundary.
    52  7.0625e-01  1.6137e-05  2.3550e-06  0:01:20  948
    53  1.3138e+00  2.1103e-05  2.3587e-06  0:01:23  947
    54  9.7730e-01  3.2568e-05  3.4038e-06  0:01:22  946

 Artificial walls on 37 faces (37.0% area) of pressure-outlet 11 to prevent fluid from flowing into the boundary.
    55  1.9114e+00  3.1155e-05  5.2751e-06  0:01:18  945

 Artificial walls on 9 faces (9.0% area) of pressure-outlet 11 to prevent fluid from flowing into the boundary.

  iter  continuity  x-velocity  y-velocity     time/iter
    56  1.8908e+00  2.2596e-05  5.0452e-06  0:01:21  944

 Artificial walls on 6 faces (6.0% area) of pressure-outlet 11 to prevent fluid from flowing into the boundary.
    57  1.0807e+00  3.0736e-05  4.4603e-06  0:01:20  943

 Artificial walls on 5 faces (5.0% area) of pressure-outlet 11 to prevent fluid from flowing into the boundary.
    58  1.1017e+00  2.9101e-05  4.0412e-06  0:01:19  942
    59  1.2622e+00  2.4419e-05  3.4845e-06  0:01:20  941

 Artificial walls on 20 faces (20.0% area) of pressure-outlet 11 to prevent fluid from flowing into the boundary.
    60  2.0862e+00  2.4548e-05  3.3800e-06  0:01:19  940
    61  1.3423e+00  1.9498e-05  3.2919e-06  0:01:18  939

 Artificial walls on 20 faces (20.0% area) of pressure-outlet 11 to prevent fluid from flowing into the boundary.
    62  8.2752e-01  1.6422e-05  3.0406e-06  0:01:16  938
    63  1.3571e+00  1.9697e-05  2.5033e-06  0:01:18  937
    64  9.1064e-01  3.1620e-05  3.6808e-06  0:01:17  936

 Artificial walls on 35 faces (35.0% area) of pressure-outlet 11 to prevent fluid from flowing into the boundary.
    65  1.9532e+00  3.1818e-05  5.4364e-06  0:01:14  935

 Artificial walls on 10 faces (10.0% area) of pressure-outlet 11 to prevent fluid from flowing into the boundary.
    66  2.0209e+00  2.2933e-05  5.1700e-06  0:01:17  934

 Artificial walls on 9 faces (9.0% area) of pressure-outlet 11 to prevent fluid from flowing into the boundary.

  iter  continuity  x-velocity  y-velocity     time/iter
    67  1.1583e+00  3.0023e-05  4.6319e-06  0:01:16  933

 Artificial walls on 4 faces (4.0% area) of pressure-outlet 11 to prevent fluid from flowing into the boundary.
    68  1.2756e+00  2.9014e-05  4.2664e-06  0:01:16  932
    69  1.2873e+00  2.6200e-05  3.5611e-06  0:01:16  931

 Artificial walls on 20 faces (20.0% area) of pressure-outlet 11 to prevent fluid from flowing into the boundary.
    70  2.1728e+00  2.5629e-05  3.5603e-06  0:01:15  930
    71  1.3952e+00  1.9522e-05  3.4733e-06  0:01:18  929

 Artificial walls on 20 faces (20.0% area) of pressure-outlet 11 to prevent fluid from flowing into the boundary.
    72  8.4827e-01  1.5315e-05  2.9820e-06  0:01:15  928
    73  1.3359e+00  2.0292e-05  2.3792e-06  0:01:17  927
    74  9.0214e-01  3.1934e-05  3.5724e-06  0:01:16  926

 Artificial walls on 33 faces (33.0% area) of pressure-outlet 11 to prevent fluid from flowing into the boundary.
    75  1.9875e+00  3.1463e-05  5.1644e-06  0:01:14  925

 Artificial walls on 10 faces (10.0% area) of pressure-outlet 11 to prevent fluid from flowing into the boundary.
    76  1.9716e+00  2.2382e-05  5.0512e-06  0:01:18  924

 Artificial walls on 9 faces (9.0% area) of pressure-outlet 11 to prevent fluid from flowing into the boundary.
    77  1.1621e+00  2.9458e-05  4.5433e-06  0:01:16  923

 Artificial walls on 8 faces (8.0% area) of pressure-outlet 11 to prevent fluid from flowing into the boundary.

  iter  continuity  x-velocity  y-velocity     time/iter
    78  1.1768e+00  2.8672e-05  4.3283e-06  0:01:16  922
    79  1.4300e+00  2.5476e-05  3.5456e-06  0:01:16  921

 Artificial walls on 18 faces (18.0% area) of pressure-outlet 11 to prevent fluid from flowing into the boundary.
    80  2.2927e+00  2.5965e-05  3.4709e-06  0:01:14  920
    81  1.3909e+00  2.0843e-05  3.6225e-06  0:01:17  919

 Artificial walls on 18 faces (18.0% area) of pressure-outlet 11 to prevent fluid from flowing into the boundary.
    82  1.0015e+00  1.5334e-05  3.0598e-06  0:02:09  918
    83  1.2511e+00  2.1390e-05  2.4683e-06  0:02:01  917

 Artificial walls on 7 faces (7.0% area) of pressure-outlet 11 to prevent fluid from flowing into the boundary.
    84  1.1602e+00  3.3951e-05  3.9039e-06  0:01:51  916

 Artificial walls on 29 faces (29.0% area) of pressure-outlet 11 to prevent fluid from flowing into the boundary.
    85  2.1806e+00  3.0645e-05  5.1311e-06  0:01:41  915

 Artificial walls on 11 faces (11.0% area) of pressure-outlet 11 to prevent fluid from flowing into the boundary.
    86  1.8914e+00  2.1919e-05  4.6919e-06  0:01:36  914

 Artificial walls on 9 faces (9.0% area) of pressure-outlet 11 to prevent fluid from flowing into the boundary.
    87  1.2391e+00  2.8922e-05  4.0721e-06  0:01:31  913

 Artificial walls on 6 faces (6.0% area) of pressure-outlet 11 to prevent fluid from flowing into the boundary.
    88  1.2167e+00  2.9733e-05  4.0618e-06  0:01:27  912

  iter  continuity  x-velocity  y-velocity     time/iter
    89  1.4096e+00  2.6522e-05  3.5829e-06  0:01:24  911

 Artificial walls on 19 faces (19.0% area) of pressure-outlet 11 to prevent fluid from flowing into the boundary.
    90  2.1169e+00  2.5065e-05  3.5847e-06  0:01:20  910

 Artificial walls on 2 faces (2.0% area) of pressure-outlet 11 to prevent fluid from flowing into the boundary.
    91  1.3721e+00  1.8964e-05  3.7444e-06  0:01:22  909

 Artificial walls on 19 faces (19.0% area) of pressure-outlet 11 to prevent fluid from flowing into the boundary.
    92  7.5742e-01  1.5194e-05  2.8713e-06  0:01:19  908
    93  1.2986e+00  2.0412e-05  2.3470e-06  0:01:20  907

 Artificial walls on 3 faces (3.0% area) of pressure-outlet 11 to prevent fluid from flowing into the boundary.
    94  1.0949e+00  3.1396e-05  3.6503e-06  0:01:18  906

 Artificial walls on 29 faces (29.0% area) of pressure-outlet 11 to prevent fluid from flowing into the boundary.
    95  2.0225e+00  3.0866e-05  5.2339e-06  0:01:16  905

 Artificial walls on 9 faces (9.0% area) of pressure-outlet 11 to prevent fluid from flowing into the boundary.
    96  1.7930e+00  2.1568e-05  4.9143e-06  0:01:18  904

 Artificial walls on 8 faces (8.0% area) of pressure-outlet 11 to prevent fluid from flowing into the boundary.
    97  1.0790e+00  2.7598e-05  4.2996e-06  0:01:16  903

 Artificial walls on 5 faces (5.0% area) of pressure-outlet 11 to prevent fluid from flowing into the boundary.
    98  1.1246e+00  2.8533e-05  4.1698e-06  0:01:19  902
    99  1.2800e+00  2.6344e-05  3.6349e-06  0:01:18  901

 Artificial walls on 19 faces (19.0% area) of pressure-outlet 11 to prevent fluid from flowing into the boundary.

  iter  continuity  x-velocity  y-velocity     time/iter
   100  2.2014e+00  2.4624e-05  3.4578e-06  0:01:16  900
   101  1.3580e+00  1.9113e-05  3.4311e-06  0:01:18  899

 Artificial walls on 19 faces (19.0% area) of pressure-outlet 11 to prevent fluid from flowing into the boundary.
   102  8.8732e-01  1.5603e-05  2.8358e-06  0:01:16  898
   103  1.2688e+00  2.1172e-05  2.3883e-06  0:01:18  897

 Artificial walls on 5 faces (5.0% area) of pressure-outlet 11 to prevent fluid from flowing into the boundary.
   104  1.1576e+00  3.3192e-05  3.8022e-06  0:01:17  896

 Artificial walls on 30 faces (30.0% area) of pressure-outlet 11 to prevent fluid from flowing into the boundary.
   105  2.1281e+00  3.1235e-05  5.2232e-06  0:01:15  895

 Artificial walls on 12 faces (12.0% area) of pressure-outlet 11 to prevent fluid from flowing into the boundary.
   106  1.8741e+00  2.1801e-05  4.8071e-06  0:01:15  894

 Artificial walls on 9 faces (9.0% area) of pressure-outlet 11 to prevent fluid from flowing into the boundary.
   107  1.3182e+00  2.7756e-05  4.0288e-06  0:01:15  893

 Artificial walls on 5 faces (5.0% area) of pressure-outlet 11 to prevent fluid from flowing into the boundary.
   108  1.2572e+00  3.0369e-05  4.1299e-06  0:01:15  892
   109  1.3765e+00  2.6104e-05  3.5938e-06  0:01:14  891

 Artificial walls on 20 faces (20.0% area) of pressure-outlet 11 to prevent fluid from flowing into the boundary.
   110  2.2176e+00  2.4016e-05  3.4629e-06  0:01:13  890

 Artificial walls on 1 face (1.0% area) of pressure-outlet 11 to prevent fluid from flowing into the boundary.

  iter  continuity  x-velocity  y-velocity     time/iter
   111  1.3573e+00  1.9266e-05  3.4528e-06  0:01:16  889

 Artificial walls on 20 faces (20.0% area) of pressure-outlet 11 to prevent fluid from flowing into the boundary.
   112  8.0326e-01  1.5313e-05  2.8210e-06  0:01:33  888
   113  1.3016e+00  1.9902e-05  2.2225e-06  0:01:30  887

 Artificial walls on 3 faces (3.0% area) of pressure-outlet 11 to prevent fluid from flowing into the boundary.
   114  1.0722e+00  3.2393e-05  3.5499e-06  0:01:27  886

 Artificial walls on 30 faces (30.0% area) of pressure-outlet 11 to prevent fluid from flowing into the boundary.
   115  2.0924e+00  3.1319e-05  5.1185e-06  0:01:22  885

 Artificial walls on 10 faces (10.0% area) of pressure-outlet 11 to prevent fluid from flowing into the boundary.
   116  1.8924e+00  2.1885e-05  4.9185e-06  0:01:20  884

 Artificial walls on 9 faces (9.0% area) of pressure-outlet 11 to prevent fluid from flowing into the boundary.
   117  1.0980e+00  2.7883e-05  4.2256e-06  0:01:18  883

 Artificial walls on 8 faces (8.0% area) of pressure-outlet 11 to prevent fluid from flowing into the boundary.
   118  1.1418e+00  2.8734e-05  4.0341e-06  0:01:18  882
   119  1.3929e+00  2.5780e-05  3.4400e-06  0:01:17  881

 Artificial walls on 17 faces (17.0% area) of pressure-outlet 11 to prevent fluid from flowing into the boundary.
   120  2.3822e+00  2.5411e-05  3.4156e-06  0:01:14  880

 Artificial walls on 2 faces (2.0% area) of pressure-outlet 11 to prevent fluid from flowing into the boundary.
   121  1.4279e+00  2.1464e-05  3.6242e-06  0:01:13  879

 Artificial walls on 17 faces (17.0% area) of pressure-outlet 11 to prevent fluid from flowing into the boundary.

  iter  continuity  x-velocity  y-velocity     time/iter
   122  1.0987e+00  1.7139e-05  3.2401e-06  0:01:11  878

 Artificial walls on 10 faces (10.0% area) of pressure-outlet 11 to prevent fluid from flowing into the boundary.
   123  9.1252e-01  1.8487e-05  2.6009e-06  0:01:11  877
   124  1.2516e+00  2.6005e-05  3.4209e-06  0:01:13  876

 Artificial walls on 22 faces (22.0% area) of pressure-outlet 11 to prevent fluid from flowing into the boundary.
   125  2.4281e+00  3.1195e-05  5.1296e-06  0:01:14  875

 Artificial walls on 15 faces (15.0% area) of pressure-outlet 11 to prevent fluid from flowing into the boundary.
   126  1.9451e+00  2.7624e-05  5.6052e-06  0:01:11  874

 Artificial walls on 14 faces (14.0% area) of pressure-outlet 11 to prevent fluid from flowing into the boundary.
   127  1.3521e+00  2.1052e-05  4.4929e-06  0:01:11  873
Done.

Operation stopped.
(cx-gui-do cx-set-list-tree-selections "NavigationPane*Frame2*Table1*List_Tree2" (list "Results|Graphics|Contours"))
(cx-gui-do cx-set-list-tree-selections "NavigationPane*Frame2*Table1*List_Tree2" (list "Results|Graphics|Contours"))
(cx-gui-do cx-activate-item "NavigationPane*Frame2*Table1*List_Tree2")
(cx-gui-do cx-set-list-tree-selections "NavigationPane*Frame2*Table1*List_Tree2" (list "Results|Graphics|Contours"))
(cx-gui-do cx-set-list-tree-selections "NavigationPane*Frame2*Table1*List_Tree2" (list "Results|Graphics|Contours|contour-1"))
(cx-gui-do cx-set-list-tree-selections "NavigationPane*Frame2*Table1*List_Tree2" (list "Results|Graphics|Contours|contour-1"))
(cx-gui-do cx-activate-item "NavigationPane*Frame2*Table1*List_Tree2")
(cx-gui-do cx-set-list-tree-selections "NavigationPane*Frame2*Table1*List_Tree2" (list "Results|Graphics|Contours|contour-1"))
(cx-gui-do cx-activate-item "Contours*PanelButtons*PushButton1(OK)")
(cx-gui-do cx-activate-item "Contours*PanelButtons*PushButton2(Cancel)")
(cx-use-window-id 51)
(dolly-camera 0.690053 0.130812 0)
(cx-gui-do cx-set-list-tree-selections "NavigationPane*Frame2*Table1*List_Tree2" (list "Setup|Boundary Conditions"))
(cx-gui-do cx-set-list-tree-selections "NavigationPane*Frame2*Table1*List_Tree2" (list "Setup|Boundary Conditions"))
(cx-gui-do cx-activate-item "NavigationPane*Frame2*Table1*List_Tree2")
(cx-gui-do cx-set-list-tree-selections "NavigationPane*Frame2*Table1*List_Tree2" (list "Setup|Boundary Conditions"))
(cx-gui-do cx-set-list-selections "Boundary Conditions*Table1*Table3*DropDownList2(Type)" '( 7))
(cx-gui-do cx-activate-item "Boundary Conditions*Table1*Table3*DropDownList2(Type)")
(cx-gui-do cx-activate-item "Outflow*PanelButtons*PushButton1(OK)")
(cx-gui-do cx-activate-item "Outflow*PanelButtons*PushButton2(Cancel)")
(cx-gui-do cx-set-list-tree-selections "NavigationPane*Frame2*Table1*List_Tree2" (list "Solution|Initialization"))
(cx-gui-do cx-set-list-tree-selections "NavigationPane*Frame2*Table1*List_Tree2" (list "Solution|Initialization"))
(cx-gui-do cx-activate-item "NavigationPane*Frame2*Table1*List_Tree2")
(cx-gui-do cx-set-list-tree-selections "NavigationPane*Frame2*Table1*List_Tree2" (list "Solution|Initialization"))
(cx-use-window-id 51)
(cxg-clear-all-selections (cx-active-window))
(cxg-add-surfaces-to-selection '() (cx-active-window))
(cx-gui-do cx-activate-item "Ribbon*Frame1*Frame2(Domain)*Table1*Table3(Mesh)*PushButton1(Display)")
(cx-gui-do cx-activate-item "Mesh Display*PanelButtons*PushButton2(Cancel)")
(cx-gui-do cx-set-list-tree-selections "NavigationPane*Frame2*Table1*List_Tree2" (list "Setup|Boundary Conditions"))
(cx-gui-do cx-set-list-tree-selections "NavigationPane*Frame2*Table1*List_Tree2" (list "Setup|Boundary Conditions"))
(cx-gui-do cx-activate-item "NavigationPane*Frame2*Table1*List_Tree2")
(cx-gui-do cx-set-list-tree-selections "NavigationPane*Frame2*Table1*List_Tree2" (list "Setup|Boundary Conditions"))
(cx-gui-do cx-set-list-tree-selections "NavigationPane*Frame2*Table1*List_Tree2" (list "Setup|Boundary Conditions"))
(cx-gui-do cx-set-list-selections "Boundary Conditions*Table1*Table3*DropDownList2(Type)" '( 12))
(cx-gui-do cx-activate-item "Boundary Conditions*Table1*Table3*DropDownList2(Type)")
(cx-gui-do cx-activate-tab-index "Pressure Outlet*Frame2*Frame2" 0)
(cx-gui-do cx-activate-tab-index "Pressure Outlet*Frame2*Frame2" 1)
(cx-gui-do cx-activate-tab-index "Pressure Outlet*Frame2*Frame2" 0)
(cx-gui-do cx-activate-tab-index "Pressure Outlet*Frame2*Frame2" 2)
(cx-gui-do cx-activate-tab-index "Pressure Outlet*Frame2*Frame2" 0)
(cx-gui-do cx-activate-tab-index "Pressure Outlet*Frame2*Frame2" 3)
(cx-gui-do cx-activate-tab-index "Pressure Outlet*Frame2*Frame2" 0)
(cx-gui-do cx-activate-tab-index "Pressure Outlet*Frame2*Frame2" 4)
(cx-gui-do cx-activate-tab-index "Pressure Outlet*Frame2*Frame2" 0)
(cx-gui-do cx-activate-tab-index "Pressure Outlet*Frame2*Frame2" 5)
(cx-gui-do cx-activate-tab-index "Pressure Outlet*Frame2*Frame2" 0)
(cx-gui-do cx-activate-tab-index "Pressure Outlet*Frame2*Frame2" 6)
(cx-gui-do cx-activate-tab-index "Pressure Outlet*Frame2*Frame2" 0)
(cx-gui-do cx-activate-tab-index "Pressure Outlet*Frame2*Frame2" 7)
(cx-gui-do cx-activate-tab-index "Pressure Outlet*Frame2*Frame2" 0)
(cx-gui-do cx-activate-tab-index "Pressure Outlet*Frame2*Frame2" 8)
(cx-gui-do cx-activate-tab-index "Pressure Outlet*Frame2*Frame2" 0)
(cx-gui-do cx-enable-apply-button "Pressure Outlet")
(cx-gui-do cx-set-toggle-button2 "Pressure Outlet*Frame2*Frame2*Frame1(Momentum)*Table1*CheckButton16(Prevent Reverse Flow)" #t)
(cx-gui-do cx-activate-item "Pressure Outlet*Frame2*Frame2*Frame1(Momentum)*Table1*CheckButton16(Prevent Reverse Flow)")
(cx-gui-do cx-activate-item "Pressure Outlet*PanelButtons*PushButton1(OK)")
(cx-gui-do cx-activate-item "Pressure Outlet*PanelButtons*PushButton1(OK)")
(cx-gui-do cx-activate-item "Pressure Outlet*PanelButtons*PushButton2(Cancel)")
(cx-gui-do cx-set-list-tree-selections "NavigationPane*Frame2*Table1*List_Tree2" (list "Solution|Initialization"))
(cx-gui-do cx-set-list-tree-selections "NavigationPane*Frame2*Table1*List_Tree2" (list "Solution|Initialization"))
(cx-gui-do cx-activate-item "NavigationPane*Frame2*Table1*List_Tree2")
(cx-gui-do cx-set-list-tree-selections "NavigationPane*Frame2*Table1*List_Tree2" (list "Solution|Initialization"))
(cx-gui-do cx-set-list-selections "Solution Initialization*Table1*DropDownList1(Compute from)" '( 2))
(cx-gui-do cx-activate-item "Solution Initialization*Table1*DropDownList1(Compute from)")
(cx-gui-do cx-activate-item "Solution Initialization*Table1*Frame9*PushButton1(Initialize)")
(cx-gui-do cx-activate-item "Question*OK")
(cx-gui-do cx-set-list-tree-selections "NavigationPane*Frame2*Table1*List_Tree2" (list "Solution|Run Calculation"))
(cx-gui-do cx-set-list-tree-selections "NavigationPane*Frame2*Table1*List_Tree2" (list "Solution|Run Calculation"))
(cx-gui-do cx-activate-item "NavigationPane*Frame2*Table1*List_Tree2")
(cx-gui-do cx-set-list-tree-selections "NavigationPane*Frame2*Table1*List_Tree2" (list "Solution|Run Calculation"))
(cx-gui-do cx-set-integer-entry "Run Calculation*Table1*Table3(Parameters)*Table1*Table1*IntegerEntry1(Number of Iterations)" 0)
(cx-gui-do cx-activate-item "Run Calculation*Table1*Table3(Parameters)*Table1*Table1*IntegerEntry1(Number of Iterations)")
(cx-gui-do cx-activate-item "Run Calculation*Table1*Table6(Solution Advancement)*Table1*PushButton3(Calculate)")


  iter  continuity  x-velocity  y-velocity     time/iter

Calculation complete.
(cx-gui-do cx-activate-item "Information*OK")
(cx-gui-do cx-set-list-tree-selections "NavigationPane*Frame2*Table1*List_Tree2" (list "Results|Graphics|Contours|contour-1"))
(cx-gui-do cx-set-list-tree-selections "NavigationPane*Frame2*Table1*List_Tree2" (list "Results|Graphics|Contours|contour-1"))
(cx-gui-do cx-activate-item "NavigationPane*Frame2*Table1*List_Tree2")
(cx-gui-do cx-set-list-tree-selections "NavigationPane*Frame2*Table1*List_Tree2" (list "Results|Graphics|Contours|contour-1"))
(cx-gui-do cx-activate-item "Contours*PanelButtons*PushButton1(OK)")
(cx-gui-do cx-activate-item "Contours*PanelButtons*PushButton2(Cancel)")
(cx-use-window-id 51)
(dolly-camera -0.633133 0.00750989 0)
(cx-use-window-id 51)
(dolly-camera -0.594045 -0.112224 0)
(cx-use-window-id 51)
(dolly-camera 0.0157363 0.142831 0)
(cx-gui-do cx-set-list-tree-selections "NavigationPane*Frame2*Table1*List_Tree2" (list "Solution|Initialization"))
(cx-gui-do cx-set-list-tree-selections "NavigationPane*Frame2*Table1*List_Tree2" (list "Solution|Initialization"))
(cx-gui-do cx-activate-item "NavigationPane*Frame2*Table1*List_Tree2")
(cx-gui-do cx-set-list-tree-selections "NavigationPane*Frame2*Table1*List_Tree2" (list "Solution|Initialization"))
(cx-gui-do cx-set-list-selections "Solution Initialization*Table1*DropDownList1(Compute from)" '( 2))
(cx-gui-do cx-activate-item "Solution Initialization*Table1*DropDownList1(Compute from)")
(cx-gui-do cx-activate-item "Solution Initialization*Table1*Frame9*PushButton1(Initialize)")
(cx-gui-do cx-activate-item "Question*OK")
(cx-gui-do cx-set-list-tree-selections "NavigationPane*Frame2*Table1*List_Tree2" (list "Solution|Run Calculation"))
(cx-gui-do cx-set-list-tree-selections "NavigationPane*Frame2*Table1*List_Tree2" (list "Solution|Run Calculation"))
(cx-gui-do cx-activate-item "NavigationPane*Frame2*Table1*List_Tree2")
(cx-gui-do cx-set-list-tree-selections "NavigationPane*Frame2*Table1*List_Tree2" (list "Solution|Run Calculation"))
(cx-gui-do cx-set-integer-entry "Run Calculation*Table1*Table3(Parameters)*Table1*Table1*IntegerEntry1(Number of Iterations)" 1000)
(cx-gui-do cx-activate-item "Run Calculation*Table1*Table3(Parameters)*Table1*Table1*IntegerEntry1(Number of Iterations)")
(cx-gui-do cx-activate-item "Run Calculation*Table1*Table6(Solution Advancement)*Table1*PushButton3(Calculate)")


  iter  continuity  x-velocity  y-velocity     time/iter
     1  0.0000e+00  2.3657e-03  0.0000e+00  0:01:30  999
     2  1.0000e+00  1.2140e-03  3.8277e-06  0:01:35  998

 Artificial walls on 18 faces (18.0% area) of pressure-outlet 11 to prevent fluid from flowing into the boundary.
     3  1.0000e+00  6.2987e-04  4.8430e-06  0:01:35  997

 Artificial walls on 10 faces (10.0% area) of pressure-outlet 11 to prevent fluid from flowing into the boundary.
     4  9.3402e-01  3.2825e-04  4.2773e-06  0:01:36  996

 Artificial walls on 18 faces (18.0% area) of pressure-outlet 11 to prevent fluid from flowing into the boundary.
     5  6.3887e-01  1.7173e-04  2.9975e-06  0:01:36  995

 Artificial walls on 8 faces (8.0% area) of pressure-outlet 11 to prevent fluid from flowing into the boundary.
     6  5.6586e-01  9.4603e-05  2.0545e-06  0:01:35  994
     7  6.1335e-01  5.9622e-05  1.3107e-06  0:01:34  993
     8  6.1311e-01  4.0310e-05  1.3886e-06  0:01:32  992
     9  6.1654e-01  2.5197e-05  1.7678e-06  0:01:30  991
    10  5.4186e-01  1.2139e-05  1.8034e-06  0:01:30  990
    11  3.1684e-01  1.4136e-05  1.2297e-06  0:01:27  989

  iter  continuity  x-velocity  y-velocity     time/iter
    12  1.6966e-01  2.0612e-05  5.7997e-07  0:01:27  988
    13  5.2113e-01  2.5166e-05  1.2715e-06  0:01:26  987

 Artificial walls on 32 faces (32.0% area) of pressure-outlet 11 to prevent fluid from flowing into the boundary.
    14  1.3316e+00  2.1322e-05  2.7619e-06  0:01:25  986

 Artificial walls on 1 face (1.0% area) of pressure-outlet 11 to prevent fluid from flowing into the boundary.
    15  1.0433e+00  1.5098e-05  2.7242e-06  0:01:27  985

 Artificial walls on 4 faces (4.0% area) of pressure-outlet 11 to prevent fluid from flowing into the boundary.
    16  5.8469e-01  2.0018e-05  2.1198e-06  0:01:26  984
    17  7.1051e-01  2.5224e-05  1.9250e-06  0:01:25  983
    18  7.7408e-01  2.2172e-05  1.5047e-06  0:01:25  982

 Artificial walls on 21 faces (21.0% area) of pressure-outlet 11 to prevent fluid from flowing into the boundary.
    19  1.9298e+00  1.6988e-05  1.8455e-06  0:01:24  981
    20  1.1658e+00  1.5514e-05  1.9514e-06  0:01:27  980

 Artificial walls on 21 faces (21.0% area) of pressure-outlet 11 to prevent fluid from flowing into the boundary.
    21  4.8498e-01  1.6712e-05  1.5149e-06  0:01:23  979
    22  1.2591e+00  1.9400e-05  1.5162e-06  0:01:24  978

  iter  continuity  x-velocity  y-velocity     time/iter
    23  9.3634e-01  3.0788e-05  2.7879e-06  0:01:24  977

 Artificial walls on 36 faces (36.0% area) of pressure-outlet 11 to prevent fluid from flowing into the boundary.
    24  1.8992e+00  3.1466e-05  4.9920e-06  0:01:22  976

 Artificial walls on 9 faces (9.0% area) of pressure-outlet 11 to prevent fluid from flowing into the boundary.
    25  1.7183e+00  2.0580e-05  4.8796e-06  0:01:24  975

 Artificial walls on 2 faces (2.0% area) of pressure-outlet 11 to prevent fluid from flowing into the boundary.
    26  1.1171e+00  2.6040e-05  3.8639e-06  0:01:23  974

 Artificial walls on 4 faces (4.0% area) of pressure-outlet 11 to prevent fluid from flowing into the boundary.
    27  9.1401e-01  2.9472e-05  3.5174e-06  0:01:22  973
    28  1.1428e+00  2.4700e-05  3.2234e-06  0:01:22  972

 Artificial walls on 21 faces (21.0% area) of pressure-outlet 11 to prevent fluid from flowing into the boundary.
    29  2.3942e+00  2.2130e-05  2.9059e-06  0:01:19  971
    30  1.3490e+00  1.9306e-05  2.7873e-06  0:01:22  970

 Artificial walls on 21 faces (21.0% area) of pressure-outlet 11 to prevent fluid from flowing into the boundary.
    31  9.8030e-01  1.5559e-05  2.5961e-06  0:01:20  969

 Artificial walls on 5 faces (5.0% area) of pressure-outlet 11 to prevent fluid from flowing into the boundary.
    32  1.1508e+00  1.8651e-05  1.9753e-06  0:01:20  968
    33  1.2538e+00  2.9699e-05  3.7485e-06  0:01:20  967

 Artificial walls on 32 faces (32.0% area) of pressure-outlet 11 to prevent fluid from flowing into the boundary.

  iter  continuity  x-velocity  y-velocity     time/iter
    34  2.6489e+00  3.2097e-05  5.1650e-06  0:01:18  966

 Artificial walls on 12 faces (12.0% area) of pressure-outlet 11 to prevent fluid from flowing into the boundary.
    35  2.1012e+00  2.2881e-05  5.1289e-06  0:01:18  965

 Artificial walls on 11 faces (11.0% area) of pressure-outlet 11 to prevent fluid from flowing into the boundary.
    36  1.3100e+00  2.3028e-05  3.9456e-06  0:01:18  964

 Artificial walls on 10 faces (10.0% area) of pressure-outlet 11 to prevent fluid from flowing into the boundary.
    37  1.1314e+00  2.8922e-05  3.7894e-06  0:01:18  963
    38  1.4706e+00  2.8115e-05  3.3566e-06  0:01:17  962

 Artificial walls on 11 faces (11.0% area) of pressure-outlet 11 to prevent fluid from flowing into the boundary.
    39  2.4557e+00  2.7606e-05  3.0994e-06  0:01:18  961

 Artificial walls on 13 faces (13.0% area) of pressure-outlet 11 to prevent fluid from flowing into the boundary.
    40  1.7998e+00  2.3759e-05  3.6194e-06  0:01:16  960

 Artificial walls on 11 faces (11.0% area) of pressure-outlet 11 to prevent fluid from flowing into the boundary.
    41  1.4141e+00  1.8627e-05  3.2402e-06  0:01:20  959

 Artificial walls on 22 faces (22.0% area) of pressure-outlet 11 to prevent fluid from flowing into the boundary.
    42  8.6129e-01  1.7552e-05  2.6660e-06  0:01:18  958
    43  1.5577e+00  2.3388e-05  1.6905e-06  0:01:20  957
    44  1.1163e+00  3.4384e-05  2.7590e-06  0:01:20  956

 Artificial walls on 35 faces (35.0% area) of pressure-outlet 11 to prevent fluid from flowing into the boundary.

  iter  continuity  x-velocity  y-velocity     time/iter
    45  2.3386e+00  3.1255e-05  4.5291e-06  0:01:18  955

 Artificial walls on 7 faces (7.0% area) of pressure-outlet 11 to prevent fluid from flowing into the boundary.
    46  1.8533e+00  2.0379e-05  4.4134e-06  0:01:22  954

 Artificial walls on 5 faces (5.0% area) of pressure-outlet 11 to prevent fluid from flowing into the boundary.
    47  1.1722e+00  2.7573e-05  3.5553e-06  0:01:21  953

 Artificial walls on 3 faces (3.0% area) of pressure-outlet 11 to prevent fluid from flowing into the boundary.
    48  1.0733e+00  3.0709e-05  3.5049e-06  0:01:21  952
    49  1.1789e+00  2.5742e-05  3.0127e-06  0:01:20  951

 Artificial walls on 22 faces (22.0% area) of pressure-outlet 11 to prevent fluid from flowing into the boundary.
    50  1.9696e+00  2.2004e-05  3.2055e-06  0:01:17  950
    51  1.2730e+00  1.8415e-05  3.1313e-06  0:01:21  949

 Artificial walls on 17 faces (17.0% area) of pressure-outlet 11 to prevent fluid from flowing into the boundary.
    52  7.0625e-01  1.6137e-05  2.3550e-06  0:01:19  948
    53  1.3138e+00  2.1103e-05  2.3587e-06  0:01:20  947
    54  9.7730e-01  3.2568e-05  3.4038e-06  0:01:19  946

 Artificial walls on 37 faces (37.0% area) of pressure-outlet 11 to prevent fluid from flowing into the boundary.
    55  1.9114e+00  3.1155e-05  5.2751e-06  0:01:17  945

 Artificial walls on 9 faces (9.0% area) of pressure-outlet 11 to prevent fluid from flowing into the boundary.

  iter  continuity  x-velocity  y-velocity     time/iter
    56  1.8908e+00  2.2596e-05  5.0452e-06  0:01:20  944

 Artificial walls on 6 faces (6.0% area) of pressure-outlet 11 to prevent fluid from flowing into the boundary.
    57  1.0807e+00  3.0736e-05  4.4603e-06  0:01:19  943

 Artificial walls on 5 faces (5.0% area) of pressure-outlet 11 to prevent fluid from flowing into the boundary.
    58  1.1017e+00  2.9101e-05  4.0412e-06  0:01:20  942
    59  1.2622e+00  2.4419e-05  3.4845e-06  0:01:20  941

 Artificial walls on 20 faces (20.0% area) of pressure-outlet 11 to prevent fluid from flowing into the boundary.
    60  2.0862e+00  2.4548e-05  3.3800e-06  0:01:17  940
    61  1.3423e+00  1.9498e-05  3.2919e-06  0:01:17  939

 Artificial walls on 20 faces (20.0% area) of pressure-outlet 11 to prevent fluid from flowing into the boundary.
    62  8.2752e-01  1.6422e-05  3.0406e-06  0:01:16  938
    63  1.3571e+00  1.9697e-05  2.5033e-06  0:01:18  937
    64  9.1064e-01  3.1620e-05  3.6808e-06  0:01:17  936

 Artificial walls on 35 faces (35.0% area) of pressure-outlet 11 to prevent fluid from flowing into the boundary.
    65  1.9532e+00  3.1818e-05  5.4364e-06  0:01:16  935

 Artificial walls on 10 faces (10.0% area) of pressure-outlet 11 to prevent fluid from flowing into the boundary.
    66  2.0209e+00  2.2933e-05  5.1700e-06  0:01:18  934

 Artificial walls on 9 faces (9.0% area) of pressure-outlet 11 to prevent fluid from flowing into the boundary.

  iter  continuity  x-velocity  y-velocity     time/iter
    67  1.1583e+00  3.0023e-05  4.6319e-06  0:01:19  933

 Artificial walls on 4 faces (4.0% area) of pressure-outlet 11 to prevent fluid from flowing into the boundary.
    68  1.2756e+00  2.9014e-05  4.2664e-06  0:01:18  932
    69  1.2873e+00  2.6200e-05  3.5611e-06  0:01:17  931

 Artificial walls on 20 faces (20.0% area) of pressure-outlet 11 to prevent fluid from flowing into the boundary.
    70  2.1728e+00  2.5629e-05  3.5603e-06  0:01:15  930
    71  1.3952e+00  1.9522e-05  3.4733e-06  0:01:18  929

 Artificial walls on 20 faces (20.0% area) of pressure-outlet 11 to prevent fluid from flowing into the boundary.
    72  8.4827e-01  1.5315e-05  2.9820e-06  0:01:16  928
    73  1.3359e+00  2.0292e-05  2.3792e-06  0:01:18  927
    74  9.0214e-01  3.1934e-05  3.5724e-06  0:01:18  926

 Artificial walls on 33 faces (33.0% area) of pressure-outlet 11 to prevent fluid from flowing into the boundary.
    75  1.9875e+00  3.1463e-05  5.1644e-06  0:01:17  925

 Artificial walls on 10 faces (10.0% area) of pressure-outlet 11 to prevent fluid from flowing into the boundary.
    76  1.9716e+00  2.2382e-05  5.0512e-06  0:01:20  924

 Artificial walls on 9 faces (9.0% area) of pressure-outlet 11 to prevent fluid from flowing into the boundary.
    77  1.1621e+00  2.9458e-05  4.5433e-06  0:01:21  923

 Artificial walls on 8 faces (8.0% area) of pressure-outlet 11 to prevent fluid from flowing into the boundary.

  iter  continuity  x-velocity  y-velocity     time/iter
    78  1.1768e+00  2.8672e-05  4.3283e-06  0:01:20  922
    79  1.4300e+00  2.5476e-05  3.5456e-06  0:01:19  921

 Artificial walls on 18 faces (18.0% area) of pressure-outlet 11 to prevent fluid from flowing into the boundary.
    80  2.2927e+00  2.5965e-05  3.4709e-06  0:01:16  920
    81  1.3909e+00  2.0843e-05  3.6225e-06  0:01:19  919

 Artificial walls on 18 faces (18.0% area) of pressure-outlet 11 to prevent fluid from flowing into the boundary.
    82  1.0015e+00  1.5334e-05  3.0598e-06  0:01:16  918
    83  1.2511e+00  2.1390e-05  2.4683e-06  0:02:11  917

 Artificial walls on 7 faces (7.0% area) of pressure-outlet 11 to prevent fluid from flowing into the boundary.
    84  1.1602e+00  3.3951e-05  3.9039e-06  0:02:01  916

 Artificial walls on 29 faces (29.0% area) of pressure-outlet 11 to prevent fluid from flowing into the boundary.
    85  2.1806e+00  3.0645e-05  5.1311e-06  0:01:50  915

 Artificial walls on 11 faces (11.0% area) of pressure-outlet 11 to prevent fluid from flowing into the boundary.
    86  1.8914e+00  2.1919e-05  4.6919e-06  0:01:42  914

 Artificial walls on 9 faces (9.0% area) of pressure-outlet 11 to prevent fluid from flowing into the boundary.
    87  1.2391e+00  2.8922e-05  4.0721e-06  0:01:36  913

 Artificial walls on 6 faces (6.0% area) of pressure-outlet 11 to prevent fluid from flowing into the boundary.
    88  1.2167e+00  2.9733e-05  4.0618e-06  0:01:32  912

  iter  continuity  x-velocity  y-velocity     time/iter
    89  1.4096e+00  2.6522e-05  3.5829e-06  0:01:29  911

 Artificial walls on 19 faces (19.0% area) of pressure-outlet 11 to prevent fluid from flowing into the boundary.
    90  2.1169e+00  2.5065e-05  3.5847e-06  0:01:25  910

 Artificial walls on 2 faces (2.0% area) of pressure-outlet 11 to prevent fluid from flowing into the boundary.
    91  1.3721e+00  1.8964e-05  3.7444e-06  0:01:28  909

 Artificial walls on 19 faces (19.0% area) of pressure-outlet 11 to prevent fluid from flowing into the boundary.
    92  7.5742e-01  1.5194e-05  2.8713e-06  0:01:24  908
    93  1.2986e+00  2.0412e-05  2.3470e-06  0:01:23  907

 Artificial walls on 3 faces (3.0% area) of pressure-outlet 11 to prevent fluid from flowing into the boundary.
    94  1.0949e+00  3.1396e-05  3.6503e-06  0:01:22  906

 Artificial walls on 29 faces (29.0% area) of pressure-outlet 11 to prevent fluid from flowing into the boundary.
    95  2.0225e+00  3.0866e-05  5.2339e-06  0:01:19  905

 Artificial walls on 9 faces (9.0% area) of pressure-outlet 11 to prevent fluid from flowing into the boundary.
    96  1.7930e+00  2.1568e-05  4.9143e-06  0:01:22  904

 Artificial walls on 8 faces (8.0% area) of pressure-outlet 11 to prevent fluid from flowing into the boundary.
    97  1.0790e+00  2.7598e-05  4.2996e-06  0:01:20  903

 Artificial walls on 5 faces (5.0% area) of pressure-outlet 11 to prevent fluid from flowing into the boundary.
    98  1.1246e+00  2.8533e-05  4.1698e-06  0:01:20  902
    99  1.2800e+00  2.6344e-05  3.6349e-06  0:01:18  901

 Artificial walls on 19 faces (19.0% area) of pressure-outlet 11 to prevent fluid from flowing into the boundary.

  iter  continuity  x-velocity  y-velocity     time/iter
   100  2.2014e+00  2.4624e-05  3.4578e-06  0:01:15  900
   101  1.3580e+00  1.9113e-05  3.4311e-06  0:01:19  899

 Artificial walls on 19 faces (19.0% area) of pressure-outlet 11 to prevent fluid from flowing into the boundary.
   102  8.8732e-01  1.5603e-05  2.8358e-06  0:01:18  898
   103  1.2688e+00  2.1172e-05  2.3883e-06  0:01:18  897

 Artificial walls on 5 faces (5.0% area) of pressure-outlet 11 to prevent fluid from flowing into the boundary.
   104  1.1576e+00  3.3192e-05  3.8022e-06  0:01:17  896

 Artificial walls on 30 faces (30.0% area) of pressure-outlet 11 to prevent fluid from flowing into the boundary.
   105  2.1281e+00  3.1235e-05  5.2232e-06  0:01:15  895

 Artificial walls on 12 faces (12.0% area) of pressure-outlet 11 to prevent fluid from flowing into the boundary.
   106  1.8741e+00  2.1801e-05  4.8071e-06  0:01:14  894

 Artificial walls on 9 faces (9.0% area) of pressure-outlet 11 to prevent fluid from flowing into the boundary.
   107  1.3182e+00  2.7756e-05  4.0288e-06  0:01:15  893

 Artificial walls on 5 faces (5.0% area) of pressure-outlet 11 to prevent fluid from flowing into the boundary.
   108  1.2572e+00  3.0369e-05  4.1299e-06  0:01:14  892
   109  1.3765e+00  2.6104e-05  3.5938e-06  0:01:13  891

 Artificial walls on 20 faces (20.0% area) of pressure-outlet 11 to prevent fluid from flowing into the boundary.
   110  2.2176e+00  2.4016e-05  3.4629e-06  0:01:11  890

 Artificial walls on 1 face (1.0% area) of pressure-outlet 11 to prevent fluid from flowing into the boundary.

  iter  continuity  x-velocity  y-velocity     time/iter
   111  1.3573e+00  1.9266e-05  3.4528e-06  0:01:14  889

 Artificial walls on 20 faces (20.0% area) of pressure-outlet 11 to prevent fluid from flowing into the boundary.
   112  8.0326e-01  1.5313e-05  2.8210e-06  0:01:12  888
   113  1.3016e+00  1.9902e-05  2.2225e-06  0:01:13  887

 Artificial walls on 3 faces (3.0% area) of pressure-outlet 11 to prevent fluid from flowing into the boundary.
   114  1.0722e+00  3.2393e-05  3.5499e-06  0:01:14  886

 Artificial walls on 30 faces (30.0% area) of pressure-outlet 11 to prevent fluid from flowing into the boundary.
   115  2.0924e+00  3.1319e-05  5.1185e-06  0:01:11  885

 Artificial walls on 10 faces (10.0% area) of pressure-outlet 11 to prevent fluid from flowing into the boundary.
   116  1.8924e+00  2.1885e-05  4.9185e-06  0:01:12  884

 Artificial walls on 9 faces (9.0% area) of pressure-outlet 11 to prevent fluid from flowing into the boundary.
   117  1.0980e+00  2.7883e-05  4.2256e-06  0:01:12  883

 Artificial walls on 8 faces (8.0% area) of pressure-outlet 11 to prevent fluid from flowing into the boundary.
   118  1.1418e+00  2.8734e-05  4.0341e-06  0:01:13  882
   119  1.3929e+00  2.5780e-05  3.4400e-06  0:01:13  881

 Artificial walls on 17 faces (17.0% area) of pressure-outlet 11 to prevent fluid from flowing into the boundary.
   120  2.3822e+00  2.5411e-05  3.4156e-06  0:01:11  880

 Artificial walls on 2 faces (2.0% area) of pressure-outlet 11 to prevent fluid from flowing into the boundary.
   121  1.4279e+00  2.1464e-05  3.6242e-06  0:01:11  879

 Artificial walls on 17 faces (17.0% area) of pressure-outlet 11 to prevent fluid from flowing into the boundary.

  iter  continuity  x-velocity  y-velocity     time/iter
   122  1.0987e+00  1.7139e-05  3.2401e-06  0:01:10  878

 Artificial walls on 10 faces (10.0% area) of pressure-outlet 11 to prevent fluid from flowing into the boundary.
   123  9.1252e-01  1.8487e-05  2.6009e-06  0:01:10  877
   124  1.2516e+00  2.6005e-05  3.4209e-06  0:01:14  876

 Artificial walls on 22 faces (22.0% area) of pressure-outlet 11 to prevent fluid from flowing into the boundary.
   125  2.4281e+00  3.1195e-05  5.1296e-06  0:01:13  875

 Artificial walls on 15 faces (15.0% area) of pressure-outlet 11 to prevent fluid from flowing into the boundary.
   126  1.9451e+00  2.7624e-05  5.6052e-06  0:01:12  874

 Artificial walls on 14 faces (14.0% area) of pressure-outlet 11 to prevent fluid from flowing into the boundary.
   127  1.3521e+00  2.1052e-05  4.4929e-06  0:01:12  873

 Artificial walls on 4 faces (4.0% area) of pressure-outlet 11 to prevent fluid from flowing into the boundary.
   128  1.3680e+00  2.6740e-05  3.8611e-06  0:01:12  872
   129  1.1914e+00  3.1276e-05  3.1585e-06  0:01:13  871

 Artificial walls on 12 faces (12.0% area) of pressure-outlet 11 to prevent fluid from flowing into the boundary.
   130  2.6627e+00  2.7869e-05  3.2617e-06  0:01:11  870

 Artificial walls on 16 faces (16.0% area) of pressure-outlet 11 to prevent fluid from flowing into the boundary.
   131  1.9253e+00  2.2307e-05  3.8605e-06  0:01:11  869

 Artificial walls on 12 faces (12.0% area) of pressure-outlet 11 to prevent fluid from flowing into the boundary.
   132  1.4705e+00  2.0719e-05  3.7210e-06  0:01:14  868

 Artificial walls on 22 faces (22.0% area) of pressure-outlet 11 to prevent fluid from flowing into the boundary.

  iter  continuity  x-velocity  y-velocity     time/iter
   133  8.9209e-01  1.8881e-05  2.9889e-06  0:01:12  867

 Artificial walls on 6 faces (6.0% area) of pressure-outlet 11 to prevent fluid from flowing into the boundary.
   134  1.2436e+00  2.0966e-05  1.9835e-06  0:01:12  866
   135  1.3556e+00  2.7603e-05  3.3407e-06  0:01:13  865

 Artificial walls on 30 faces (30.0% area) of pressure-outlet 11 to prevent fluid from flowing into the boundary.
   136  2.4622e+00  3.1106e-05  5.4061e-06  0:01:13  864

 Artificial walls on 11 faces (11.0% area) of pressure-outlet 11 to prevent fluid from flowing into the boundary.
   137  1.9590e+00  2.4721e-05  5.4087e-06  0:01:12  863

 Artificial walls on 6 faces (6.0% area) of pressure-outlet 11 to prevent fluid from flowing into the boundary.
   138  1.3131e+00  2.2884e-05  4.3131e-06  0:01:14  862

 Artificial walls on 6 faces (6.0% area) of pressure-outlet 11 to prevent fluid from flowing into the boundary.
   139  1.0155e+00  2.9926e-05  4.3132e-06  0:01:13  861
   140  1.1974e+00  2.7440e-05  3.6457e-06  0:01:13  860

 Artificial walls on 18 faces (18.0% area) of pressure-outlet 11 to prevent fluid from flowing into the boundary.
   141  2.7571e+00  2.4905e-05  3.7677e-06  0:01:12  859

 Artificial walls on 4 faces (4.0% area) of pressure-outlet 11 to prevent fluid from flowing into the boundary.
   142  1.4646e+00  2.3925e-05  4.0118e-06  0:01:12  858

 Artificial walls on 19 faces (19.0% area) of pressure-outlet 11 to prevent fluid from flowing into the boundary.
   143  1.3831e+00  1.9214e-05  3.6058e-06  0:01:10  857

 Artificial walls on 14 faces (14.0% area) of pressure-outlet 11 to prevent fluid from flowing into the boundary.

  iter  continuity  x-velocity  y-velocity     time/iter
   144  9.7708e-01  1.8498e-05  2.6717e-06  0:01:11  856
   145  1.3394e+00  2.5633e-05  3.0259e-06  0:01:12  855

 Artificial walls on 18 faces (18.0% area) of pressure-outlet 11 to prevent fluid from flowing into the boundary.
   146  2.3501e+00  3.3070e-05  4.8231e-06  0:01:12  854

 Artificial walls on 19 faces (19.0% area) of pressure-outlet 11 to prevent fluid from flowing into the boundary.
   147  1.9292e+00  3.0667e-05  5.8715e-06  0:01:09  853

 Artificial walls on 16 faces (16.0% area) of pressure-outlet 11 to prevent fluid from flowing into the boundary.
   148  1.4105e+00  2.1819e-05  4.9003e-06  0:01:13  852

 Artificial walls on 3 faces (3.0% area) of pressure-outlet 11 to prevent fluid from flowing into the boundary.
   149  1.4559e+00  2.7662e-05  3.8786e-06  0:01:12  851
   150  1.1818e+00  3.3632e-05  3.2382e-06  0:01:11  850

 Artificial walls on 12 faces (12.0% area) of pressure-outlet 11 to prevent fluid from flowing into the boundary.
   151  2.6846e+00  2.8453e-05  3.3711e-06  0:01:11  849

 Artificial walls on 18 faces (18.0% area) of pressure-outlet 11 to prevent fluid from flowing into the boundary.
   152  1.8686e+00  2.1642e-05  3.9108e-06  0:01:11  848

 Artificial walls on 11 faces (11.0% area) of pressure-outlet 11 to prevent fluid from flowing into the boundary.
   153  1.4888e+00  2.0688e-05  3.6341e-06  0:01:10  847

 Artificial walls on 14 faces (14.0% area) of pressure-outlet 11 to prevent fluid from flowing into the boundary.
   154  9.4158e-01  2.0768e-05  2.8779e-06  0:01:09  846

 Artificial walls on 3 faces (3.0% area) of pressure-outlet 11 to prevent fluid from flowing into the boundary.

  iter  continuity  x-velocity  y-velocity     time/iter
   155  1.1470e+00  2.7003e-05  3.4116e-06  0:01:10  845

 Artificial walls on 7 faces (7.0% area) of pressure-outlet 11 to prevent fluid from flowing into the boundary.
   156  1.9406e+00  3.1148e-05  4.5933e-06  0:01:09  844

 Artificial walls on 28 faces (28.0% area) of pressure-outlet 11 to prevent fluid from flowing into the boundary.
   157  1.9040e+00  3.0311e-05  6.3150e-06  0:01:08  843

 Artificial walls on 14 faces (14.0% area) of pressure-outlet 11 to prevent fluid from flowing into the boundary.
   158  1.3106e+00  2.2173e-05  5.5650e-06  0:01:09  842

 Artificial walls on 7 faces (7.0% area) of pressure-outlet 11 to prevent fluid from flowing into the boundary.
   159  1.2117e+00  2.5534e-05  4.4539e-06  0:01:10  841
   160  1.2905e+00  3.1986e-05  3.3387e-06  0:01:10  840

 Artificial walls on 1 face (1.0% area) of pressure-outlet 11 to prevent fluid from flowing into the boundary.
   161  1.1724e+00  2.7949e-05  3.1030e-06  0:01:10  839

 Artificial walls on 27 faces (27.0% area) of pressure-outlet 11 to prevent fluid from flowing into the boundary.
   162  1.7408e+00  2.1747e-05  3.6870e-06  0:01:11  838

 Artificial walls on 2 faces (2.0% area) of pressure-outlet 11 to prevent fluid from flowing into the boundary.
   163  1.3285e+00  2.0007e-05  2.9225e-06  0:01:11  837

 Artificial walls on 9 faces (9.0% area) of pressure-outlet 11 to prevent fluid from flowing into the boundary.
   164  7.9974e-01  2.5005e-05  3.6682e-06  0:01:11  836
   165  1.1632e+00  2.9692e-05  4.5251e-06  0:01:11  835

 Artificial walls on 29 faces (29.0% area) of pressure-outlet 11 to prevent fluid from flowing into the boundary.

  iter  continuity  x-velocity  y-velocity     time/iter
   166  2.4456e+00  2.7581e-05  5.4576e-06  0:01:10  834

 Artificial walls on 11 faces (11.0% area) of pressure-outlet 11 to prevent fluid from flowing into the boundary.
   167  1.6769e+00  2.4885e-05  5.5614e-06  0:01:10  833

 Artificial walls on 15 faces (15.0% area) of pressure-outlet 11 to prevent fluid from flowing into the boundary.
   168  1.1172e+00  1.8611e-05  4.1516e-06  0:01:10  832

 Artificial walls on 8 faces (8.0% area) of pressure-outlet 11 to prevent fluid from flowing into the boundary.
   169  1.0085e+00  2.4532e-05  3.3859e-06  0:01:10  831
   170  1.1744e+00  2.6978e-05  2.8629e-06  0:01:10  830
   171  9.9073e-01  2.5671e-05  2.8512e-06  0:01:10  829

 Artificial walls on 26 faces (26.0% area) of pressure-outlet 11 to prevent fluid from flowing into the boundary.
   172  1.6502e+00  2.4341e-05  3.6474e-06  0:01:09  828

 Artificial walls on 2 faces (2.0% area) of pressure-outlet 11 to prevent fluid from flowing into the boundary.
   173  1.3009e+00  1.8868e-05  3.4920e-06  0:01:11  827

 Artificial walls on 12 faces (12.0% area) of pressure-outlet 11 to prevent fluid from flowing into the boundary.
   174  8.7080e-01  2.5832e-05  4.9922e-06  0:01:11  826

 Artificial walls on 2 faces (2.0% area) of pressure-outlet 11 to prevent fluid from flowing into the boundary.
   175  1.1553e+00  2.6780e-05  5.4776e-06  0:01:11  825

 Artificial walls on 20 faces (20.0% area) of pressure-outlet 11 to prevent fluid from flowing into the boundary.
   176  2.5737e+00  2.6180e-05  5.4664e-06  0:01:11  824

 Artificial walls on 13 faces (13.0% area) of pressure-outlet 11 to prevent fluid from flowing into the boundary.

  iter  continuity  x-velocity  y-velocity     time/iter
   177  1.5905e+00  2.7753e-05  5.6623e-06  0:01:09  823

 Artificial walls on 13 faces (13.0% area) of pressure-outlet 11 to prevent fluid from flowing into the boundary.
   178  1.3965e+00  2.0450e-05  5.1037e-06  0:01:08  822

 Artificial walls on 12 faces (12.0% area) of pressure-outlet 11 to prevent fluid from flowing into the boundary.
   179  9.8432e-01  2.0694e-05  4.0945e-06  0:01:08  821

 Artificial walls on 1 face (1.0% area) of pressure-outlet 11 to prevent fluid from flowing into the boundary.
   180  1.2418e+00  2.7053e-05  2.9025e-06  0:01:07  820

 Artificial walls on 1 face (1.0% area) of pressure-outlet 11 to prevent fluid from flowing into the boundary.
   181  1.1548e+00  2.7317e-05  3.2238e-06  0:01:08  819

 Artificial walls on 26 faces (26.0% area) of pressure-outlet 11 to prevent fluid from flowing into the boundary.
   182  2.2155e+00  2.4114e-05  3.8341e-06  0:01:08  818

 Artificial walls on 4 faces (4.0% area) of pressure-outlet 11 to prevent fluid from flowing into the boundary.
   183  1.5793e+00  1.9405e-05  3.7444e-06  0:01:09  817

 Artificial walls on 15 faces (15.0% area) of pressure-outlet 11 to prevent fluid from flowing into the boundary.
   184  9.3954e-01  2.2771e-05  4.6466e-06  0:01:09  816

 Artificial walls on 5 faces (5.0% area) of pressure-outlet 11 to prevent fluid from flowing into the boundary.
   185  1.1534e+00  2.3411e-05  4.5782e-06  0:01:09  815
   186  1.3075e+00  2.7943e-05  4.4370e-06  0:01:11  814

 Artificial walls on 30 faces (30.0% area) of pressure-outlet 11 to prevent fluid from flowing into the boundary.
   187  1.7316e+00  3.1044e-05  6.5639e-06  0:01:08  813

 Artificial walls on 7 faces (7.0% area) of pressure-outlet 11 to prevent fluid from flowing into the boundary.

  iter  continuity  x-velocity  y-velocity     time/iter
   188  1.5422e+00  2.2886e-05  6.2143e-06  0:01:26  812

 Artificial walls on 4 faces (4.0% area) of pressure-outlet 11 to prevent fluid from flowing into the boundary.
   189  1.1250e+00  2.5345e-05  5.1355e-06  0:01:22  811

 Artificial walls on 13 faces (13.0% area) of pressure-outlet 11 to prevent fluid from flowing into the boundary.
   190  1.2843e+00  3.4269e-05  6.0197e-06  0:01:19  810

 Artificial walls on 13 faces (13.0% area) of pressure-outlet 11 to prevent fluid from flowing into the boundary.
   191  1.9646e+00  2.9420e-05  5.4258e-06  0:01:16  809

 Artificial walls on 21 faces (21.0% area) of pressure-outlet 11 to prevent fluid from flowing into the boundary.
   192  1.9695e+00  2.2191e-05  4.8551e-06  0:01:13  808

 Artificial walls on 10 faces (10.0% area) of pressure-outlet 11 to prevent fluid from flowing into the boundary.
   193  1.3657e+00  2.2515e-05  4.5765e-06  0:01:13  807

 Artificial walls on 14 faces (14.0% area) of pressure-outlet 11 to prevent fluid from flowing into the boundary.
   194  1.1215e+00  2.2483e-05  4.8319e-06  0:01:13  806

 Artificial walls on 3 faces (3.0% area) of pressure-outlet 11 to prevent fluid from flowing into the boundary.
   195  1.3384e+00  2.6153e-05  4.4569e-06  0:01:13  805

 Artificial walls on 2 faces (2.0% area) of pressure-outlet 11 to prevent fluid from flowing into the boundary.
   196  1.3248e+00  3.2273e-05  5.5079e-06  0:01:13  804

 Artificial walls on 33 faces (33.0% area) of pressure-outlet 11 to prevent fluid from flowing into the boundary.
   197  1.9149e+00  3.3881e-05  7.6814e-06  0:01:10  803

 Artificial walls on 15 faces (15.0% area) of pressure-outlet 11 to prevent fluid from flowing into the boundary.
   198  1.6036e+00  2.4743e-05  6.6471e-06  0:01:10  802

 Artificial walls on 3 faces (3.0% area) of pressure-outlet 11 to prevent fluid from flowing into the boundary.

  iter  continuity  x-velocity  y-velocity     time/iter
   199  1.4041e+00  2.7955e-05  5.2525e-06  0:01:09  801

 Artificial walls on 6 faces (6.0% area) of pressure-outlet 11 to prevent fluid from flowing into the boundary.
   200  1.2607e+00  3.4939e-05  5.8778e-06  0:01:09  800

 Artificial walls on 16 faces (16.0% area) of pressure-outlet 11 to prevent fluid from flowing into the boundary.
   201  2.1946e+00  3.1607e-05  5.9520e-06  0:01:08  799

 Artificial walls on 18 faces (18.0% area) of pressure-outlet 11 to prevent fluid from flowing into the boundary.
   202  2.0871e+00  2.3245e-05  5.0886e-06  0:01:08  798

 Artificial walls on 15 faces (15.0% area) of pressure-outlet 11 to prevent fluid from flowing into the boundary.
   203  1.4433e+00  2.0263e-05  4.1964e-06  0:01:08  797

 Artificial walls on 16 faces (16.0% area) of pressure-outlet 11 to prevent fluid from flowing into the boundary.
   204  1.1271e+00  2.1520e-05  4.4141e-06  0:01:05  796

 Artificial walls on 3 faces (3.0% area) of pressure-outlet 11 to prevent fluid from flowing into the boundary.
   205  1.4941e+00  2.7437e-05  3.6779e-06  0:01:07  795

 Artificial walls on 10 faces (10.0% area) of pressure-outlet 11 to prevent fluid from flowing into the boundary.
   206  2.1353e+00  3.5187e-05  5.5543e-06  0:01:07  794

 Artificial walls on 26 faces (26.0% area) of pressure-outlet 11 to prevent fluid from flowing into the boundary.
   207  2.1323e+00  3.2360e-05  6.6051e-06  0:01:05  793

 Artificial walls on 15 faces (15.0% area) of pressure-outlet 11 to prevent fluid from flowing into the boundary.
   208  1.6975e+00  2.3646e-05  5.7973e-06  0:01:06  792

 Artificial walls on 8 faces (8.0% area) of pressure-outlet 11 to prevent fluid from flowing into the boundary.
   209  1.3329e+00  2.6383e-05  4.7344e-06  0:01:06  791

 Artificial walls on 3 faces (3.0% area) of pressure-outlet 11 to prevent fluid from flowing into the boundary.

  iter  continuity  x-velocity  y-velocity     time/iter
   210  1.2224e+00  3.2902e-05  5.1465e-06  0:01:06  790

 Artificial walls on 1 face (1.0% area) of pressure-outlet 11 to prevent fluid from flowing into the boundary.
   211  1.3117e+00  2.8558e-05  4.4245e-06  0:01:06  789

 Artificial walls on 25 faces (25.0% area) of pressure-outlet 11 to prevent fluid from flowing into the boundary.
   212  1.8752e+00  2.6258e-05  4.6699e-06  0:01:06  788

 Artificial walls on 7 faces (7.0% area) of pressure-outlet 11 to prevent fluid from flowing into the boundary.
   213  1.4534e+00  2.2056e-05  4.3241e-06  0:01:06  787

 Artificial walls on 11 faces (11.0% area) of pressure-outlet 11 to prevent fluid from flowing into the boundary.
   214  9.1775e-01  2.2870e-05  4.3468e-06  0:01:06  786

 Artificial walls on 3 faces (3.0% area) of pressure-outlet 11 to prevent fluid from flowing into the boundary.
   215  1.0560e+00  2.7089e-05  5.3208e-06  0:01:05  785

 Artificial walls on 16 faces (16.0% area) of pressure-outlet 11 to prevent fluid from flowing into the boundary.
   216  1.7482e+00  2.8948e-05  6.1780e-06  0:01:49  784

 Artificial walls on 19 faces (19.0% area) of pressure-outlet 11 to prevent fluid from flowing into the boundary.
   217  1.9774e+00  2.8938e-05  6.4770e-06  0:01:39  783

 Artificial walls on 14 faces (14.0% area) of pressure-outlet 11 to prevent fluid from flowing into the boundary.
   218  1.4255e+00  2.1392e-05  5.4868e-06  0:01:33  782

 Artificial walls on 8 faces (8.0% area) of pressure-outlet 11 to prevent fluid from flowing into the boundary.
   219  1.2980e+00  2.3810e-05  4.4819e-06  0:01:27  781

 Artificial walls on 5 faces (5.0% area) of pressure-outlet 11 to prevent fluid from flowing into the boundary.
   220  1.0963e+00  2.9915e-05  4.8162e-06  0:01:23  780

  iter  continuity  x-velocity  y-velocity     time/iter
   221  1.1969e+00  2.7419e-05  4.7369e-06  0:01:20  779

 Artificial walls on 24 faces (24.0% area) of pressure-outlet 11 to prevent fluid from flowing into the boundary.
   222  2.3545e+00  2.5528e-05  5.0518e-06  0:01:17  778

 Artificial walls on 8 faces (8.0% area) of pressure-outlet 11 to prevent fluid from flowing into the boundary.
   223  1.6302e+00  2.2919e-05  4.7452e-06  0:01:14  777

 Artificial walls on 23 faces (23.0% area) of pressure-outlet 11 to prevent fluid from flowing into the boundary.
   224  9.8796e-01  1.9845e-05  3.8952e-06  0:01:12  776

 Artificial walls on 9 faces (9.0% area) of pressure-outlet 11 to prevent fluid from flowing into the boundary.
   225  1.3049e+00  2.2562e-05  4.1610e-06  0:01:11  775
   226  1.3115e+00  2.8937e-05  5.3200e-06  0:01:10  774

 Artificial walls on 20 faces (20.0% area) of pressure-outlet 11 to prevent fluid from flowing into the boundary.
   227  2.2498e+00  3.2890e-05  6.4596e-06  0:01:09  773

 Artificial walls on 19 faces (19.0% area) of pressure-outlet 11 to prevent fluid from flowing into the boundary.
   228  2.0259e+00  2.7194e-05  6.6289e-06  0:01:08  772

 Artificial walls on 14 faces (14.0% area) of pressure-outlet 11 to prevent fluid from flowing into the boundary.
   229  1.4203e+00  2.1200e-05  5.0524e-06  0:01:09  771

 Artificial walls on 12 faces (12.0% area) of pressure-outlet 11 to prevent fluid from flowing into the boundary.
   230  1.1365e+00  2.4146e-05  4.4741e-06  0:01:07  770
   231  1.4881e+00  3.1049e-05  3.5985e-06  0:01:06  769

 Artificial walls on 7 faces (7.0% area) of pressure-outlet 11 to prevent fluid from flowing into the boundary.

  iter  continuity  x-velocity  y-velocity     time/iter
   232  1.8319e+00  3.3180e-05  3.9857e-06  0:01:06  768

 Artificial walls on 22 faces (22.0% area) of pressure-outlet 11 to prevent fluid from flowing into the boundary.
   233  1.7970e+00  2.7228e-05  4.6260e-06  0:01:05  767

 Artificial walls on 8 faces (8.0% area) of pressure-outlet 11 to prevent fluid from flowing into the boundary.
   234  1.3462e+00  2.0292e-05  4.2485e-06  0:01:06  766
Done.

Operation stopped.
(cx-gui-do cx-set-list-tree-selections "NavigationPane*Frame2*Table1*List_Tree2" (list "Solution|Methods"))
(cx-gui-do cx-set-list-tree-selections "NavigationPane*Frame2*Table1*List_Tree2" (list "Solution|Methods"))
(cx-gui-do cx-activate-item "NavigationPane*Frame2*Table1*List_Tree2")
(cx-gui-do cx-set-list-tree-selections "NavigationPane*Frame2*Table1*List_Tree2" (list "Solution|Methods"))
(cx-gui-do cx-set-list-tree-selections "NavigationPane*Frame2*Table1*List_Tree2" (list "Solution|Initialization"))
(cx-gui-do cx-set-list-tree-selections "NavigationPane*Frame2*Table1*List_Tree2" (list "Solution|Initialization"))
(cx-gui-do cx-activate-item "NavigationPane*Frame2*Table1*List_Tree2")
(cx-gui-do cx-set-list-tree-selections "NavigationPane*Frame2*Table1*List_Tree2" (list "Solution|Initialization"))
(cx-gui-do cx-set-list-tree-selections "NavigationPane*Frame2*Table1*List_Tree2" (list "Setup|Boundary Conditions"))
(cx-gui-do cx-set-list-tree-selections "NavigationPane*Frame2*Table1*List_Tree2" (list "Setup|Boundary Conditions"))
(cx-gui-do cx-activate-item "NavigationPane*Frame2*Table1*List_Tree2")
(cx-gui-do cx-set-list-tree-selections "NavigationPane*Frame2*Table1*List_Tree2" (list "Setup|Boundary Conditions"))
(cx-gui-do cx-activate-item "Boundary Conditions*Table1*Table3*Table4*ButtonBox1*PushButton1(Edit)")
(cx-gui-do cx-enable-apply-button "Pressure Outlet")
(cx-gui-do cx-set-toggle-button2 "Pressure Outlet*Frame2*Frame2*Frame1(Momentum)*Table1*CheckButton16(Prevent Reverse Flow)" #f)
(cx-gui-do cx-activate-item "Pressure Outlet*Frame2*Frame2*Frame1(Momentum)*Table1*CheckButton16(Prevent Reverse Flow)")
(cx-gui-do cx-activate-item "Pressure Outlet*PanelButtons*PushButton1(OK)")
(cx-gui-do cx-activate-item "Pressure Outlet*PanelButtons*PushButton2(Cancel)")
(cx-gui-do cx-set-list-tree-selections "NavigationPane*Frame2*Table1*List_Tree2" (list "Solution|Initialization"))
(cx-gui-do cx-set-list-tree-selections "NavigationPane*Frame2*Table1*List_Tree2" (list "Solution|Initialization"))
(cx-gui-do cx-activate-item "NavigationPane*Frame2*Table1*List_Tree2")
(cx-gui-do cx-set-list-tree-selections "NavigationPane*Frame2*Table1*List_Tree2" (list "Solution|Initialization"))
(cx-gui-do cx-activate-item "Solution Initialization*Table1*Frame9*PushButton1(Initialize)")
(cx-gui-do cx-activate-item "Question*OK")
(cx-gui-do cx-set-list-tree-selections "NavigationPane*Frame2*Table1*List_Tree2" (list "Solution|Run Calculation"))
(cx-gui-do cx-set-list-tree-selections "NavigationPane*Frame2*Table1*List_Tree2" (list "Solution|Run Calculation"))
(cx-gui-do cx-activate-item "NavigationPane*Frame2*Table1*List_Tree2")
(cx-gui-do cx-set-list-tree-selections "NavigationPane*Frame2*Table1*List_Tree2" (list "Solution|Run Calculation"))
(cx-gui-do cx-set-integer-entry "Run Calculation*Table1*Table3(Parameters)*Table1*Table1*IntegerEntry1(Number of Iterations)" 10000)
(cx-gui-do cx-activate-item "Run Calculation*Table1*Table3(Parameters)*Table1*Table1*IntegerEntry1(Number of Iterations)")
(cx-gui-do cx-activate-item "Run Calculation*Table1*Table6(Solution Advancement)*Table1*PushButton3(Calculate)")


  iter  continuity  x-velocity  y-velocity     time/iter
     1  0.0000e+00  2.3657e-03  0.0000e+00  0:15:27 9999
     2  1.0000e+00  1.2140e-03  3.8277e-06  0:15:46 9998

 Reversed flow on 18 faces (18.0% area) of pressure-outlet 11.
     3  1.0000e+00  6.3974e-04  6.0935e-06  0:15:49 9997

 Reversed flow on 30 faces (30.0% area) of pressure-outlet 11.
     4  1.0000e+00  3.3699e-04  8.6775e-06  0:15:39 9996

 Reversed flow on 22 faces (22.0% area) of pressure-outlet 11.
     5  9.5875e-01  1.8027e-04  8.2003e-06  0:15:14 9995

 Reversed flow on 16 faces (16.0% area) of pressure-outlet 11.
     6  8.3542e-01  9.9131e-05  5.8359e-06  0:15:14 9994

 Reversed flow on 10 faces (10.0% area) of pressure-outlet 11.
     7  7.3571e-01  6.0286e-05  3.5357e-06  0:14:55 9993
     8  8.2352e-01  4.1969e-05  2.4836e-06  0:14:38 9992
     9  9.0284e-01  3.3266e-05  2.1973e-06  0:14:26 9991
    10  1.1038e+00  2.2094e-05  2.3167e-06  0:14:19 9990

 Reversed flow on 11 faces (11.0% area) of pressure-outlet 11.
    11  1.0631e+00  2.1753e-05  3.8980e-06  0:13:48 9989

 Reversed flow on 13 faces (13.0% area) of pressure-outlet 11.

  iter  continuity  x-velocity  y-velocity     time/iter
    12  6.2877e-01  1.8115e-05  3.0508e-06  0:13:28 9988

 Reversed flow on 5 faces (5.0% area) of pressure-outlet 11.
    13  5.4218e-01  1.8387e-05  2.0201e-06  0:13:32 9987
    14  9.2802e-01  2.2693e-05  2.9077e-06  0:13:56 9986

 Reversed flow on 22 faces (22.0% area) of pressure-outlet 11.
    15  1.1332e+00  5.2225e-05  5.5077e-06  0:13:43 9985

 Reversed flow on 38 faces (38.0% area) of pressure-outlet 11.
    16  1.4352e+00  3.8618e-05  1.1497e-05  0:13:51 9984

 Reversed flow on 18 faces (18.0% area) of pressure-outlet 11.
    17  1.3814e+00  3.2800e-05  1.1816e-05  0:13:50 9983

 Reversed flow on 19 faces (19.0% area) of pressure-outlet 11.
    18  1.1261e+00  4.2378e-05  1.1787e-05  0:13:47 9982

 Reversed flow on 15 faces (15.0% area) of pressure-outlet 11.
    19  1.5337e+00  2.8267e-05  8.7035e-06  0:13:36 9981
    20  1.5773e+00  2.4242e-05  5.0965e-06  0:13:55 9980

 Reversed flow on 15 faces (15.0% area) of pressure-outlet 11.
    21  1.2221e+00  5.1701e-05  7.3793e-06  0:13:37 9979

 Reversed flow on 23 faces (23.0% area) of pressure-outlet 11.
    22  1.5780e+00  3.4352e-05  1.1968e-05  0:13:16 9978

 Reversed flow on 16 faces (16.0% area) of pressure-outlet 11.

  iter  continuity  x-velocity  y-velocity     time/iter
    23  1.5714e+00  2.4476e-05  1.0777e-05  0:12:57 9977

 Reversed flow on 12 faces (12.0% area) of pressure-outlet 11.
    24  1.2232e+00  2.9492e-05  8.1421e-06  0:13:00 9976

 Reversed flow on 8 faces (8.0% area) of pressure-outlet 11.
    25  1.1859e+00  2.6970e-05  5.9875e-06  0:13:04 9975
    26  1.4761e+00  2.2643e-05  4.1127e-06  0:13:23 9974

 Reversed flow on 21 faces (21.0% area) of pressure-outlet 11.
    27  1.3469e+00  4.8007e-05  6.2886e-06  0:13:08 9973

 Reversed flow on 30 faces (30.0% area) of pressure-outlet 11.
    28  1.4008e+00  2.6698e-05  8.5136e-06  0:12:53 9972

 Reversed flow on 14 faces (14.0% area) of pressure-outlet 11.
    29  1.1935e+00  1.9591e-05  5.8843e-06  0:13:02 9971

 Reversed flow on 3 faces (3.0% area) of pressure-outlet 11.
    30  9.2159e-01  2.6937e-05  3.9832e-06  0:13:35 9970

 Reversed flow on 1 face (1.0% area) of pressure-outlet 11.
    31  1.1987e+00  2.9158e-05  3.3949e-06  0:13:44 9969

 Reversed flow on 14 faces (14.0% area) of pressure-outlet 11.
    32  1.5697e+00  3.8196e-05  4.6387e-06  0:13:42 9968

 Reversed flow on 32 faces (32.0% area) of pressure-outlet 11.
    33  1.5908e+00  3.9406e-05  1.6376e-05  0:13:47 9967

 Reversed flow on 25 faces (25.0% area) of pressure-outlet 11.

  iter  continuity  x-velocity  y-velocity     time/iter
    34  1.1908e+00  3.4108e-05  1.6161e-05  0:13:46 9966

 Reversed flow on 19 faces (19.0% area) of pressure-outlet 11.
    35  1.2855e+00  3.8646e-05  1.4580e-05  0:13:58 9965

 Reversed flow on 17 faces (17.0% area) of pressure-outlet 11.
    36  1.5652e+00  3.8097e-05  1.3540e-05  0:13:51 9964

 Reversed flow on 22 faces (22.0% area) of pressure-outlet 11.
    37  1.7503e+00  4.2329e-05  1.6295e-05  0:13:51 9963

 Reversed flow on 28 faces (28.0% area) of pressure-outlet 11.
    38  1.5424e+00  3.9579e-05  1.5982e-05  0:13:27 9962

 Reversed flow on 30 faces (30.0% area) of pressure-outlet 11.
[...]
  3236  3.0841e-06  2.3000e-05  4.7095e-06  0:10:09 6764

 Reversed flow on 16 faces (16.0% area) of pressure-outlet 11.
  3237  3.7484e-06  1.8666e-05  4.6452e-06  0:10:05 6763

 Reversed flow on 8 faces (8.0% area) of pressure-outlet 11.
  3238  3.7000e-06  2.0952e-05  4.9658e-06  0:10:21 6762

 Reversed flow on 14 faces (14.0% area) of pressure-outlet 11.
  3239  2.9249e-06  2.3205e-05  5.9721e-06  0:10:39 6761

 Reversed flow on 9 faces (9.0% area) of pressure-outlet 11.
  3240  2.8321e-06  2.0864e-05  5.5384e-06  0:10:49 6760
  3241  3.5812e-06  1.9670e-05  4.3053e-06  0:11:17 6759
  3242  3.7871e-06  2.7059e-05  3.6764e-06  0:11:34 6758

 Reversed flow on 24 faces (24.0% area) of pressure-outlet 11.
  3243  4.9455e-06  4.6112e-05  1.0492e-05  0:11:16 6757

 Reversed flow on 35 faces (35.0% area) of pressure-outlet 11.
  3244  5.4032e-06  3.2318e-05  1.3434e-05  0:11:35 6756

 Reversed flow on 20 faces (20.0% area) of pressure-outlet 11.
  3245  4.3896e-06  2.7907e-05  1.0191e-05  0:11:46 6755

 Reversed flow on 15 faces (15.0% area) of pressure-outlet 11.

  iter  continuity  x-velocity  y-velocity     time/iter
  3246  3.5326e-06  3.3306e-05  7.8553e-06  0:11:54 6754

 Reversed flow on 11 faces (11.0% area) of pressure-outlet 11.
  3247  5.2041e-06  2.8625e-05  5.7924e-06  0:12:00 6753

 Reversed flow on 10 faces (10.0% area) of pressure-outlet 11.
  3248  5.8160e-06  2.7487e-05  5.2768e-06  0:18:51 6752

 Reversed flow on 26 faces (26.0% area) of pressure-outlet 11.
  3249  5.2577e-06  3.9949e-05  1.0070e-05  0:17:18 6751

 Reversed flow on 25 faces (25.0% area) of pressure-outlet 11.
  3250  4.6900e-06  3.1718e-05  1.1361e-05  0:16:15 6750

 Reversed flow on 19 faces (19.0% area) of pressure-outlet 11.
  3251  4.6430e-06  3.3877e-05  1.1728e-05  0:15:05 6749

 Reversed flow on 15 faces (15.0% area) of pressure-outlet 11.
  3252  4.8373e-06  3.3944e-05  1.2030e-05  0:14:17 6748

 Reversed flow on 15 faces (15.0% area) of pressure-outlet 11.
  3253  5.3118e-06  3.6721e-05  1.3808e-05  0:13:51 6747

 Reversed flow on 26 faces (26.0% area) of pressure-outlet 11.
  3254  5.6154e-06  4.1868e-05  1.8049e-05  0:13:15 6746

 Reversed flow on 30 faces (30.0% area) of pressure-outlet 11.
  3255  5.3500e-06  2.8439e-05  1.4702e-05  0:12:25 6745

 Reversed flow on 11 faces (11.0% area) of pressure-outlet 11.
  3256  4.4360e-06  2.6081e-05  8.8758e-06  0:14:43 6744

 Reversed flow on 11 faces (11.0% area) of pressure-outlet 11.

  iter  continuity  x-velocity  y-velocity     time/iter
  3257  4.0805e-06  3.4936e-05  7.9689e-06  0:14:03 6743

 Reversed flow on 8 faces (8.0% area) of pressure-outlet 11.
  3258  5.7227e-06  2.6259e-05  7.0072e-06  0:13:20 6742

 Reversed flow on 20 faces (20.0% area) of pressure-outlet 11.
  3259  6.0261e-06  3.8589e-05  7.7963e-06  0:12:34 6741

 Reversed flow on 33 faces (33.0% area) of pressure-outlet 11.
  3260  4.2994e-06  4.1794e-05  1.1757e-05  0:11:48 6740

 Reversed flow on 22 faces (22.0% area) of pressure-outlet 11.
  3261  5.0275e-06  3.5055e-05  1.2837e-05  0:11:26 6739

 Reversed flow on 20 faces (20.0% area) of pressure-outlet 11.
  3262  6.0369e-06  4.6608e-05  1.6481e-05  0:11:04 6738

 Reversed flow on 25 faces (25.0% area) of pressure-outlet 11.
  3263  5.6700e-06  5.2875e-05  2.0909e-05  0:10:56 6737

 Reversed flow on 31 faces (31.0% area) of pressure-outlet 11.
  3264  6.3108e-06  4.7822e-05  2.1363e-05  0:10:38 6736

 Reversed flow on 24 faces (24.0% area) of pressure-outlet 11.
  3265  6.8627e-06  5.2226e-05  2.5596e-05  0:10:54 6735

 Reversed flow on 31 faces (31.0% area) of pressure-outlet 11.
  3266  6.1497e-06  5.7754e-05  3.1894e-05  0:10:46 6734

 Reversed flow on 37 faces (37.0% area) of pressure-outlet 11.
  3267  6.6083e-06  4.4586e-05  2.7500e-05  0:10:30 6733

 Reversed flow on 24 faces (24.0% area) of pressure-outlet 11.

  iter  continuity  x-velocity  y-velocity     time/iter
  3268  6.9049e-06  3.8546e-05  2.0277e-05  0:10:32 6732

 Reversed flow on 28 faces (28.0% area) of pressure-outlet 11.
  3269  5.1629e-06  4.8516e-05  2.0340e-05  0:10:30 6731

 Reversed flow on 33 faces (33.0% area) of pressure-outlet 11.
  3270  5.9248e-06  3.4276e-05  1.6346e-05  0:10:39 6730

 Reversed flow on 35 faces (35.0% area) of pressure-outlet 11.
  3271  5.8610e-06  2.1822e-05  9.6264e-06  0:10:11 6729

 Reversed flow on 5 faces (5.0% area) of pressure-outlet 11.
  3272  4.3468e-06  2.6854e-05  5.9247e-06  0:10:16 6728

 Reversed flow on 9 faces (9.0% area) of pressure-outlet 11.
  3273  4.2913e-06  3.6619e-05  5.7760e-06  0:10:34 6727

 Reversed flow on 9 faces (9.0% area) of pressure-outlet 11.
  3274  5.6622e-06  2.8905e-05  5.1328e-06  0:10:44 6726

 Reversed flow on 21 faces (21.0% area) of pressure-outlet 11.
  3275  5.9343e-06  4.4417e-05  1.4464e-05  0:10:53 6725

 Reversed flow on 30 faces (30.0% area) of pressure-outlet 11.
  3276  4.7135e-06  4.3617e-05  1.9395e-05  0:10:57 6724

 Reversed flow on 22 faces (22.0% area) of pressure-outlet 11.
  3277  5.3770e-06  4.4977e-05  2.1379e-05  0:10:48 6723

 Reversed flow on 23 faces (23.0% area) of pressure-outlet 11.
  3278  6.3170e-06  5.6654e-05  2.7768e-05  0:11:03 6722

 Reversed flow on 32 faces (32.0% area) of pressure-outlet 11.

  iter  continuity  x-velocity  y-velocity     time/iter
  3279  6.4648e-06  5.6646e-05  3.1517e-05  0:11:04 6721

 Reversed flow on 38 faces (38.0% area) of pressure-outlet 11.
  3280  6.7804e-06  4.0769e-05  2.3670e-05  0:10:52 6720

 Reversed flow on 25 faces (25.0% area) of pressure-outlet 11.
  3281  6.1197e-06  3.5057e-05  1.5916e-05  0:10:40 6719

 Reversed flow on 28 faces (28.0% area) of pressure-outlet 11.
  3282  4.6386e-06  4.2455e-05  1.3851e-05  0:10:29 6718

 Reversed flow on 33 faces (33.0% area) of pressure-outlet 11.
  3283  5.7639e-06  2.9594e-05  1.0816e-05  0:10:05 6717

 Reversed flow on 26 faces (26.0% area) of pressure-outlet 11.
  3284  5.5725e-06  1.8805e-05  7.0596e-06  0:10:01 6716

 Reversed flow on 8 faces (8.0% area) of pressure-outlet 11.
  3285  3.9049e-06  2.5351e-05  5.6463e-06  0:10:16 6715

 Reversed flow on 8 faces (8.0% area) of pressure-outlet 11.
  3286  3.8023e-06  2.8568e-05  5.6826e-06  0:10:34 6714

 Reversed flow on 3 faces (3.0% area) of pressure-outlet 11.
  3287  4.5093e-06  2.2336e-05  5.1645e-06  0:10:27 6713

 Reversed flow on 16 faces (16.0% area) of pressure-outlet 11.
  3288  4.8909e-06  4.6908e-05  9.1409e-06  0:10:26 6712

 Reversed flow on 24 faces (24.0% area) of pressure-outlet 11.
  3289  4.7513e-06  4.3227e-05  1.5593e-05  0:10:35 6711

 Reversed flow on 21 faces (21.0% area) of pressure-outlet 11.

  iter  continuity  x-velocity  y-velocity     time/iter
  3290  5.5711e-06  3.8352e-05  1.7748e-05  0:10:39 6710

 Reversed flow on 23 faces (23.0% area) of pressure-outlet 11.
  3291  5.8150e-06  4.7104e-05  2.2748e-05  0:10:39 6709

 Reversed flow on 27 faces (27.0% area) of pressure-outlet 11.
  3292  5.5392e-06  4.9131e-05  2.5428e-05  0:10:52 6708

 Reversed flow on 34 faces (34.0% area) of pressure-outlet 11.
  3293  6.0135e-06  4.4218e-05  2.2953e-05  0:10:49 6707

 Reversed flow on 34 faces (34.0% area) of pressure-outlet 11.
  3294  5.9507e-06  3.0219e-05  1.5309e-05  0:10:27 6706

 Reversed flow on 22 faces (22.0% area) of pressure-outlet 11.
  3295  5.1232e-06  2.8005e-05  9.8310e-06  0:10:18 6705

 Reversed flow on 25 faces (25.0% area) of pressure-outlet 11.
  3296  3.9705e-06  3.2646e-05  7.9349e-06  0:10:19 6704

 Reversed flow on 28 faces (28.0% area) of pressure-outlet 11.
  3297  4.9084e-06  2.2968e-05  6.4670e-06  0:10:09 6703

 Reversed flow on 15 faces (15.0% area) of pressure-outlet 11.
  3298  4.5785e-06  1.6773e-05  5.2465e-06  0:10:20 6702

 Reversed flow on 5 faces (5.0% area) of pressure-outlet 11.
  3299  3.5589e-06  2.1871e-05  4.8347e-06  0:10:25 6701

 Reversed flow on 7 faces (7.0% area) of pressure-outlet 11.
  3300  3.4862e-06  2.4946e-05  5.4615e-06  0:10:20 6700

 Reversed flow on 7 faces (7.0% area) of pressure-outlet 11.

  iter  continuity  x-velocity  y-velocity     time/iter
  3301  3.7366e-06  1.9886e-05  4.8180e-06  0:10:39 6699

 Reversed flow on 2 faces (2.0% area) of pressure-outlet 11.
  3302  3.9136e-06  2.1403e-05  4.5916e-06  0:10:36 6698

 Reversed flow on 12 faces (12.0% area) of pressure-outlet 11.
  3303  4.1865e-06  3.4934e-05  7.8442e-06  0:10:27 6697

 Reversed flow on 24 faces (24.0% area) of pressure-outlet 11.
  3304  4.9236e-06  4.0002e-05  1.4474e-05  0:10:21 6696

 Reversed flow on 22 faces (22.0% area) of pressure-outlet 11.
  3305  5.1323e-06  3.3304e-05  1.6127e-05  0:10:15 6695

 Reversed flow on 20 faces (20.0% area) of pressure-outlet 11.
  3306  4.4637e-06  3.5437e-05  1.4780e-05  0:10:22 6694

 Reversed flow on 26 faces (26.0% area) of pressure-outlet 11.
  3307  4.2789e-06  3.8854e-05  1.4342e-05  0:10:04 6693

 Reversed flow on 31 faces (31.0% area) of pressure-outlet 11.
  3308  5.3538e-06  2.5410e-05  1.0777e-05  0:09:39 6692

 Reversed flow on 29 faces (29.0% area) of pressure-outlet 11.
  3309  4.6152e-06  1.6441e-05  6.5493e-06  0:09:26 6691

 Reversed flow on 20 faces (20.0% area) of pressure-outlet 11.
  3310  3.1085e-06  1.9934e-05  4.6650e-06  0:09:29 6690

 Reversed flow on 19 faces (19.0% area) of pressure-outlet 11.
  3311  2.7146e-06  2.2509e-05  3.4643e-06  0:09:26 6689

 Reversed flow on 16 faces (16.0% area) of pressure-outlet 11.

  iter  continuity  x-velocity  y-velocity     time/iter
  3312  3.5897e-06  1.7643e-05  3.4293e-06  0:09:55 6688
  3313  3.6771e-06  1.1738e-05  3.1493e-06  0:10:15 6687

 Reversed flow on 2 faces (2.0% area) of pressure-outlet 11.
  3314  2.8738e-06  1.7222e-05  3.2833e-06  0:10:16 6686

 Reversed flow on 3 faces (3.0% area) of pressure-outlet 11.
  3315  2.4406e-06  1.8440e-05  3.3278e-06  0:10:20 6685

 Reversed flow on 3 faces (3.0% area) of pressure-outlet 11.
  3316  3.0872e-06  1.6356e-05  2.6314e-06  0:10:23 6684
  3317  3.3743e-06  1.6450e-05  2.1815e-06  0:10:21 6683
  3318  3.3755e-06  1.4359e-05  2.0994e-06  0:10:17 6682
  3319  3.1052e-06  1.4207e-05  2.1439e-06  0:10:23 6681

 Reversed flow on 12 faces (12.0% area) of pressure-outlet 11.
  3320  2.8050e-06  2.3433e-05  4.2975e-06  0:10:15 6680

 Reversed flow on 20 faces (20.0% area) of pressure-outlet 11.
  3321  3.0175e-06  1.8190e-05  4.5831e-06  0:10:10 6679

 Reversed flow on 15 faces (15.0% area) of pressure-outlet 11.
  3322  2.9504e-06  1.3149e-05  3.5617e-06  0:10:03 6678

 Reversed flow on 6 faces (6.0% area) of pressure-outlet 11.

  iter  continuity  x-velocity  y-velocity     time/iter
  3323  2.5762e-06  1.2432e-05  2.8573e-06  0:09:58 6677

 Reversed flow on 9 faces (9.0% area) of pressure-outlet 11.
  3324  2.3659e-06  1.5236e-05  2.3937e-06  0:09:51 6676

 Reversed flow on 7 faces (7.0% area) of pressure-outlet 11.
  3325  2.6484e-06  1.4212e-05  2.3497e-06  0:09:44 6675

 Reversed flow on 3 faces (3.0% area) of pressure-outlet 11.
  3326  2.8652e-06  1.1626e-05  2.1328e-06  0:09:54 6674

 Reversed flow on 13 faces (13.0% area) of pressure-outlet 11.
  3327  2.4249e-06  2.3904e-05  3.3200e-06  0:09:54 6673

 Reversed flow on 19 faces (19.0% area) of pressure-outlet 11.
  3328  2.3080e-06  1.8871e-05  4.3640e-06  0:09:56 6672

 Reversed flow on 14 faces (14.0% area) of pressure-outlet 11.
  3329  2.5665e-06  1.4743e-05  3.9268e-06  0:09:54 6671

 Reversed flow on 6 faces (6.0% area) of pressure-outlet 11.
  3330  2.7297e-06  1.1591e-05  2.9885e-06  0:10:05 6670

 Reversed flow on 4 faces (4.0% area) of pressure-outlet 11.
  3331  2.3272e-06  1.5086e-05  2.3672e-06  0:09:59 6669
  3332  2.7189e-06  1.5792e-05  2.2036e-06  0:10:06 6668

 Reversed flow on 1 face (1.0% area) of pressure-outlet 11.
  3333  2.8377e-06  1.6994e-05  2.1233e-06  0:10:14 6667

 Reversed flow on 1 face (1.0% area) of pressure-outlet 11.

  iter  continuity  x-velocity  y-velocity     time/iter
  3334  2.9903e-06  1.3616e-05  2.2935e-06  0:10:13 6666

 Reversed flow on 3 faces (3.0% area) of pressure-outlet 11.
  3335  2.8224e-06  1.3902e-05  2.4193e-06  0:10:21 6665

 Reversed flow on 5 faces (5.0% area) of pressure-outlet 11.
  3336  2.1279e-06  1.6211e-05  2.6603e-06  0:10:09 6664
  3337  2.5520e-06  1.7791e-05  2.6494e-06  0:10:11 6663

 Reversed flow on 14 faces (14.0% area) of pressure-outlet 11.
  3338  3.2749e-06  4.0857e-05  5.2136e-06  0:10:10 6662

 Reversed flow on 24 faces (24.0% area) of pressure-outlet 11.
  3339  4.3846e-06  3.8036e-05  1.1535e-05  0:10:10 6661

 Reversed flow on 20 faces (20.0% area) of pressure-outlet 11.
  3340  4.7377e-06  3.5766e-05  1.6191e-05  0:10:15 6660

 Reversed flow on 23 faces (23.0% area) of pressure-outlet 11.
  3341  4.4466e-06  4.3084e-05  1.9850e-05  0:10:13 6659

 Reversed flow on 30 faces (30.0% area) of pressure-outlet 11.
  3342  5.0217e-06  4.3492e-05  2.1496e-05  0:10:11 6658

 Reversed flow on 27 faces (27.0% area) of pressure-outlet 11.
  3343  6.0996e-06  4.3220e-05  2.2329e-05  0:10:06 6657

 Reversed flow on 30 faces (30.0% area) of pressure-outlet 11.
  3344  5.7004e-06  4.8145e-05  2.5802e-05  0:10:11 6656

 Reversed flow on 32 faces (32.0% area) of pressure-outlet 11.

  iter  continuity  x-velocity  y-velocity     time/iter
  3345  5.9637e-06  4.7578e-05  2.7196e-05  0:09:55 6655

 Reversed flow on 28 faces (28.0% area) of pressure-outlet 11.
  3346  6.2835e-06  4.0283e-05  2.3304e-05  0:09:39 6654

 Reversed flow on 32 faces (32.0% area) of pressure-outlet 11.
  3347  5.7852e-06  4.0570e-05  1.9448e-05  0:09:20 6653

 Reversed flow on 29 faces (29.0% area) of pressure-outlet 11.
  3348  5.5075e-06  3.1507e-05  1.5481e-05  0:09:11 6652

 Reversed flow on 29 faces (29.0% area) of pressure-outlet 11.
  3349  4.9590e-06  2.6308e-05  1.1021e-05  0:09:03 6651

 Reversed flow on 28 faces (28.0% area) of pressure-outlet 11.
  3350  4.2710e-06  2.3601e-05  8.1887e-06  0:09:15 6650

 Reversed flow on 23 faces (23.0% area) of pressure-outlet 11.
  3351  3.8874e-06  2.0507e-05  6.6221e-06  0:09:19 6649

 Reversed flow on 17 faces (17.0% area) of pressure-outlet 11.
  3352  3.6698e-06  1.9884e-05  5.4944e-06  0:09:21 6648
  3353  3.5320e-06  1.9805e-05  4.9447e-06  0:09:21 6647

 Reversed flow on 2 faces (2.0% area) of pressure-outlet 11.
  3354  3.8720e-06  2.1268e-05  4.7064e-06  0:09:25 6646

 Reversed flow on 8 faces (8.0% area) of pressure-outlet 11.
  3355  3.9833e-06  2.9065e-05  5.8898e-06  0:09:25 6645

 Reversed flow on 19 faces (19.0% area) of pressure-outlet 11.

  iter  continuity  x-velocity  y-velocity     time/iter
  3356  4.2739e-06  3.6498e-05  1.2757e-05  0:09:28 6644

 Reversed flow on 21 faces (21.0% area) of pressure-outlet 11.
  3357  4.4489e-06  3.6532e-05  1.7227e-05  0:09:31 6643

 Reversed flow on 21 faces (21.0% area) of pressure-outlet 11.
  3358  4.8603e-06  3.7509e-05  1.9948e-05  0:09:36 6642

 Reversed flow on 28 faces (28.0% area) of pressure-outlet 11.
  3359  4.6754e-06  4.1964e-05  2.2046e-05  0:09:38 6641

 Reversed flow on 34 faces (34.0% area) of pressure-outlet 11.
  3360  4.9267e-06  3.2144e-05  1.8713e-05  0:09:23 6640

 Reversed flow on 30 faces (30.0% area) of pressure-outlet 11.
  3361  4.4203e-06  2.3670e-05  1.2242e-05  0:09:02 6639

 Reversed flow on 24 faces (24.0% area) of pressure-outlet 11.
  3362  3.5735e-06  2.3550e-05  8.4535e-06  0:09:10 6638

 Reversed flow on 26 faces (26.0% area) of pressure-outlet 11.
  3363  3.4646e-06  2.6205e-05  7.2541e-06  0:09:18 6637

 Reversed flow on 29 faces (29.0% area) of pressure-outlet 11.
  3364  4.0754e-06  1.9087e-05  6.1644e-06  0:09:26 6636

 Reversed flow on 8 faces (8.0% area) of pressure-outlet 11.
  3365  3.5987e-06  1.3833e-05  4.8877e-06  0:09:54 6635

 Reversed flow on 8 faces (8.0% area) of pressure-outlet 11.
  3366  2.8023e-06  2.2139e-05  4.7757e-06  0:09:59 6634

 Reversed flow on 7 faces (7.0% area) of pressure-outlet 11.

  iter  continuity  x-velocity  y-velocity     time/iter
  3367  3.3759e-06  2.1384e-05  4.9236e-06  0:09:56 6633

 Reversed flow on 3 faces (3.0% area) of pressure-outlet 11.
  3368  3.5428e-06  1.7462e-05  4.4738e-06  0:09:54 6632

 Reversed flow on 7 faces (7.0% area) of pressure-outlet 11.
  3369  3.4034e-06  3.2805e-05  7.0428e-06  0:10:05 6631

 Reversed flow on 17 faces (17.0% area) of pressure-outlet 11.
  3370  4.1302e-06  3.8998e-05  1.2975e-05  0:10:09 6630

 Reversed flow on 23 faces (23.0% area) of pressure-outlet 11.
  3371  5.1922e-06  3.5368e-05  1.5855e-05  0:10:03 6629

 Reversed flow on 24 faces (24.0% area) of pressure-outlet 11.
  3372  5.3077e-06  3.3167e-05  1.7049e-05  0:09:59 6628

 Reversed flow on 22 faces (22.0% area) of pressure-outlet 11.
  3373  4.2882e-06  3.7169e-05  1.6301e-05  0:16:42 6627

 Reversed flow on 28 faces (28.0% area) of pressure-outlet 11.
  3374  4.6208e-06  3.9577e-05  1.6229e-05  0:15:05 6626

 Reversed flow on 33 faces (33.0% area) of pressure-outlet 11.
  3375  5.6829e-06  2.5652e-05  1.1844e-05  0:13:44 6625

 Reversed flow on 26 faces (26.0% area) of pressure-outlet 11.
  3376  4.7638e-06  1.9141e-05  7.4246e-06  0:12:54 6624

 Reversed flow on 20 faces (20.0% area) of pressure-outlet 11.
  3377  3.1128e-06  2.3305e-05  5.3552e-06  0:12:23 6623

 Reversed flow on 20 faces (20.0% area) of pressure-outlet 11.

  iter  continuity  x-velocity  y-velocity     time/iter
  3378  3.2946e-06  2.3727e-05  4.4773e-06  0:11:56 6622

 Reversed flow on 19 faces (19.0% area) of pressure-outlet 11.
  3379  3.8922e-06  1.6125e-05  3.8910e-06  0:11:37 6621
  3380  3.6633e-06  1.3567e-05  3.4317e-06  0:11:25 6620

 Reversed flow on 1 face (1.0% area) of pressure-outlet 11.
  3381  2.7969e-06  1.8564e-05  3.5703e-06  0:11:07 6619

 Reversed flow on 2 faces (2.0% area) of pressure-outlet 11.
  3382  2.8016e-06  1.9991e-05  3.4060e-06  0:10:53 6618

 Reversed flow on 2 faces (2.0% area) of pressure-outlet 11.
  3383  3.4102e-06  1.9236e-05  2.6519e-06  0:10:40 6617

 Reversed flow on 8 faces (8.0% area) of pressure-outlet 11.
  3384  4.1143e-06  3.1998e-05  4.8650e-06  0:10:32 6616

 Reversed flow on 23 faces (23.0% area) of pressure-outlet 11.
  3385  4.6499e-06  2.8474e-05  8.6044e-06  0:10:18 6615

 Reversed flow on 21 faces (21.0% area) of pressure-outlet 11.
  3386  4.1607e-06  2.2027e-05  8.3430e-06  0:10:02 6614

 Reversed flow on 12 faces (12.0% area) of pressure-outlet 11.
  3387  3.4873e-06  2.6737e-05  8.3598e-06  0:10:00 6613

 Reversed flow on 17 faces (17.0% area) of pressure-outlet 11.
  3388  3.9300e-06  3.2408e-05  9.2433e-06  0:09:53 6612

 Reversed flow on 23 faces (23.0% area) of pressure-outlet 11.

  iter  continuity  x-velocity  y-velocity     time/iter
  3389  4.8052e-06  2.5269e-05  8.6789e-06  0:09:36 6611

 Reversed flow on 24 faces (24.0% area) of pressure-outlet 11.
  3390  4.5370e-06  1.3959e-05  5.7271e-06  0:09:17 6610
Done.

Operation stopped.
(cx-gui-do cx-set-list-tree-selections "NavigationPane*Frame2*Table1*List_Tree2" (list "Results|Graphics|Contours|contour-1"))
(cx-gui-do cx-set-list-tree-selections "NavigationPane*Frame2*Table1*List_Tree2" (list "Results|Graphics|Contours|contour-1"))
(cx-gui-do cx-activate-item "NavigationPane*Frame2*Table1*List_Tree2")
(cx-gui-do cx-set-list-tree-selections "NavigationPane*Frame2*Table1*List_Tree2" (list "Results|Graphics|Contours|contour-1"))
(cx-gui-do cx-activate-item "Contours*PanelButtons*PushButton1(OK)")
(cx-gui-do cx-activate-item "Contours*PanelButtons*PushButton2(Cancel)")
(cx-use-window-id 51)
(dolly-camera 0.845011 -0.16957 0)
